data_image0
_chemical_formula_structural       Ga4P4
_chemical_formula_sum              "Ga4 P4"
_cell_length_a       5.26408
_cell_length_b       5.26408
_cell_length_c       5.26934
_cell_angle_alpha    82.0372
_cell_angle_beta     82.0372
_cell_angle_gamma    102.877

_space_group_name_H-M_alt    "P 1"
_space_group_IT_number       1

loop_
  _space_group_symop_operation_xyz
  'x, y, z'

loop_
  _atom_site_type_symbol
  _atom_site_label
  _atom_site_symmetry_multiplicity
  _atom_site_fract_x
  _atom_site_fract_y
  _atom_site_fract_z
  _atom_site_occupancy
  Ga  Ga1       1.0  0.90844  0.90844  0.98986  1.0000
  Ga  Ga2       1.0  0.41062  0.41062  0.02185  1.0000
  Ga  Ga3       1.0  0.82325  0.26688  0.40986  1.0000
  Ga  Ga4       1.0  0.26688  0.82325  0.40986  1.0000
  P   P1        1.0  0.71686  0.71686  0.54793  1.0000
  P   P2        1.0  0.30204  0.30204  0.56480  1.0000
  P   P3        1.0  0.44755  0.94785  0.85016  1.0000
  P   P4        1.0  0.94785  0.44755  0.85016  1.0000
