data_image0
_chemical_formula_structural       Ga4P4
_chemical_formula_sum              "Ga4 P4"
_cell_length_a       4.51369
_cell_length_b       7.04623
_cell_length_c       5.55213
_cell_angle_alpha    90
_cell_angle_beta     90
_cell_angle_gamma    90

_space_group_name_H-M_alt    "P 1"
_space_group_IT_number       1

loop_
  _space_group_symop_operation_xyz
  'x, y, z'

loop_
  _atom_site_type_symbol
  _atom_site_label
  _atom_site_symmetry_multiplicity
  _atom_site_fract_x
  _atom_site_fract_y
  _atom_site_fract_z
  _atom_site_occupancy
  Ga  Ga1       1.0  0.75000  0.95716  0.84712  1.0000
  Ga  Ga2       1.0  0.25000  0.04284  0.15288  1.0000
  Ga  Ga3       1.0  0.25000  0.54284  0.34712  1.0000
  Ga  Ga4       1.0  0.75000  0.45716  0.65288  1.0000
  P   P1        1.0  0.75000  0.81802  0.36037  1.0000
  P   P2        1.0  0.25000  0.18198  0.63963  1.0000
  P   P3        1.0  0.25000  0.68198  0.86037  1.0000
  P   P4        1.0  0.75000  0.31802  0.13963  1.0000
