data_image0
_chemical_formula_structural       Ga4P4
_chemical_formula_sum              "Ga4 P4"
_cell_length_a       3.77135
_cell_length_b       8.39586
_cell_length_c       5.58772
_cell_angle_alpha    112.064
_cell_angle_beta     90
_cell_angle_gamma    90

_space_group_name_H-M_alt    "P 1"
_space_group_IT_number       1

loop_
  _space_group_symop_operation_xyz
  'x, y, z'

loop_
  _atom_site_type_symbol
  _atom_site_label
  _atom_site_symmetry_multiplicity
  _atom_site_fract_x
  _atom_site_fract_y
  _atom_site_fract_z
  _atom_site_occupancy
  Ga  Ga1       1.0  0.75000  0.21126  0.84503  1.0000
  Ga  Ga2       1.0  0.25000  0.28874  0.15497  1.0000
  Ga  Ga3       1.0  0.75000  0.71126  0.84503  1.0000
  Ga  Ga4       1.0  0.25000  0.78874  0.15497  1.0000
  P   P1        1.0  0.75000  0.07031  0.28122  1.0000
  P   P2        1.0  0.25000  0.42969  0.71878  1.0000
  P   P3        1.0  0.75000  0.57031  0.28122  1.0000
  P   P4        1.0  0.25000  0.92970  0.71878  1.0000
