data_image0
_chemical_formula_structural       Ga4P4
_chemical_formula_sum              "Ga4 P4"
_cell_length_a       3.00918
_cell_length_b       3.00912
_cell_length_c       9.76008
_cell_angle_alpha    72.0415
_cell_angle_beta     89.9993
_cell_angle_gamma    120.002

_space_group_name_H-M_alt    "P 1"
_space_group_IT_number       1

loop_
  _space_group_symop_operation_xyz
  'x, y, z'

loop_
  _atom_site_type_symbol
  _atom_site_label
  _atom_site_symmetry_multiplicity
  _atom_site_fract_x
  _atom_site_fract_y
  _atom_site_fract_z
  _atom_site_occupancy
  Ga  Ga1       1.0  0.25000  0.49999  0.12498  1.0000
  Ga  Ga2       1.0  0.75000  0.50001  0.37502  1.0000
  Ga  Ga3       1.0  0.25000  0.49999  0.62498  1.0000
  Ga  Ga4       1.0  0.75000  0.50001  0.87502  1.0000
  P   P1        1.0  0.50000  0.00000  0.25000  1.0000
  P   P2        1.0  0.00000  0.00000  0.00000  1.0000
  P   P3        1.0  0.50000  0.00000  0.75000  1.0000
  P   P4        1.0  0.00000  0.00000  0.50000  1.0000
