data_image0
_chemical_formula_structural       Ga4P4
_chemical_formula_sum              "Ga4 P4"
_cell_length_a       3.91511
_cell_length_b       7.09613
_cell_length_c       5.41275
_cell_angle_alpha    90
_cell_angle_beta     90
_cell_angle_gamma    90

_space_group_name_H-M_alt    "P 1"
_space_group_IT_number       1

loop_
  _space_group_symop_operation_xyz
  'x, y, z'

loop_
  _atom_site_type_symbol
  _atom_site_label
  _atom_site_symmetry_multiplicity
  _atom_site_fract_x
  _atom_site_fract_y
  _atom_site_fract_z
  _atom_site_occupancy
  Ga  Ga1       1.0  0.75000  0.95168  0.84781  1.0000
  Ga  Ga2       1.0  0.25000  0.04832  0.15219  1.0000
  Ga  Ga3       1.0  0.25000  0.54832  0.34781  1.0000
  Ga  Ga4       1.0  0.75000  0.45168  0.65219  1.0000
  P   P1        1.0  0.75000  0.82392  0.36911  1.0000
  P   P2        1.0  0.25000  0.17608  0.63089  1.0000
  P   P3        1.0  0.25000  0.67608  0.86911  1.0000
  P   P4        1.0  0.75000  0.32392  0.13089  1.0000
