data_image0
_chemical_formula_structural       Ga3P3
_chemical_formula_sum              "Ga3 P3"
_cell_length_a       8.45468
_cell_length_b       8.45468
_cell_length_c       5.28729
_cell_angle_alpha    90
_cell_angle_beta     90
_cell_angle_gamma    155.832

_space_group_name_H-M_alt    "P 1"
_space_group_IT_number       1

loop_
  _space_group_symop_operation_xyz
  'x, y, z'

loop_
  _atom_site_type_symbol
  _atom_site_label
  _atom_site_symmetry_multiplicity
  _atom_site_fract_x
  _atom_site_fract_y
  _atom_site_fract_z
  _atom_site_occupancy
  Ga  Ga1       1.0  0.33840  0.66160  0.00000  1.0000
  Ga  Ga2       1.0  0.10206  0.89794  0.50000  1.0000
  Ga  Ga3       1.0  0.77748  0.22253  0.50000  1.0000
  P   P1        1.0  0.98170  0.01830  0.00000  1.0000
  P   P2        1.0  0.69195  0.30805  0.00000  1.0000
  P   P3        1.0  0.44175  0.55825  0.50000  1.0000
