data_image0
_chemical_formula_structural       Ga4P4
_chemical_formula_sum              "Ga4 P4"
_cell_length_a       4.12328
_cell_length_b       6.27327
_cell_length_c       7.17849
_cell_angle_alpha    90
_cell_angle_beta     90
_cell_angle_gamma    90

_space_group_name_H-M_alt    "P 1"
_space_group_IT_number       1

loop_
  _space_group_symop_operation_xyz
  'x, y, z'

loop_
  _atom_site_type_symbol
  _atom_site_label
  _atom_site_symmetry_multiplicity
  _atom_site_fract_x
  _atom_site_fract_y
  _atom_site_fract_z
  _atom_site_occupancy
  Ga  Ga1       1.0  0.75000  0.25388  0.91677  1.0000
  Ga  Ga2       1.0  0.75000  0.75388  0.58323  1.0000
  Ga  Ga3       1.0  0.25000  0.74612  0.08323  1.0000
  Ga  Ga4       1.0  0.25000  0.24612  0.41677  1.0000
  P   P1        1.0  0.75000  0.49695  0.25473  1.0000
  P   P2        1.0  0.75000  0.99695  0.24527  1.0000
  P   P3        1.0  0.25000  0.50305  0.74527  1.0000
  P   P4        1.0  0.25000  0.00305  0.75473  1.0000
