data_image0
_chemical_formula_structural       Ga5P5
_chemical_formula_sum              "Ga5 P5"
_cell_length_a       4.13376
_cell_length_b       5.09789
_cell_length_c       5.84807
_cell_angle_alpha    105.935
_cell_angle_beta     90.0038
_cell_angle_gamma    113.919

_space_group_name_H-M_alt    "P 1"
_space_group_IT_number       1

loop_
  _space_group_symop_operation_xyz
  'x, y, z'

loop_
  _atom_site_type_symbol
  _atom_site_label
  _atom_site_symmetry_multiplicity
  _atom_site_fract_x
  _atom_site_fract_y
  _atom_site_fract_z
  _atom_site_occupancy
  Ga  Ga1       1.0  0.64451  0.28910  0.32817  1.0000
  Ga  Ga2       1.0  0.35549  0.71090  0.67183  1.0000
  Ga  Ga3       1.0  0.65829  0.31657  0.82185  1.0000
  Ga  Ga4       1.0  0.34171  0.68343  0.17815  1.0000
  Ga  Ga5       1.0  0.00000  0.00000  0.50000  1.0000
  P   P1        1.0  0.50000  0.00000  0.00000  1.0000
  P   P2        1.0  0.82332  0.64661  0.16916  1.0000
  P   P3        1.0  0.17668  0.35339  0.83084  1.0000
  P   P4        1.0  0.82583  0.65152  0.65335  1.0000
  P   P5        1.0  0.17417  0.34848  0.34665  1.0000
