data_image0
_chemical_formula_structural       Ga2P2
_chemical_formula_sum              "Ga2 P2"
_cell_length_a       4.62509
_cell_length_b       4.62265
_cell_length_c       7.6163
_cell_angle_alpha    90
_cell_angle_beta     90
_cell_angle_gamma    120.018

_space_group_name_H-M_alt    "P 1"
_space_group_IT_number       1

loop_
  _space_group_symop_operation_xyz
  'x, y, z'

loop_
  _atom_site_type_symbol
  _atom_site_label
  _atom_site_symmetry_multiplicity
  _atom_site_fract_x
  _atom_site_fract_y
  _atom_site_fract_z
  _atom_site_occupancy
  Ga  Ga1       1.0  0.66812  0.33624  0.48815  1.0000
  Ga  Ga2       1.0  0.33188  0.66376  0.98815  1.0000
  P   P1        1.0  0.66550  0.33100  0.86185  1.0000
  P   P2        1.0  0.33450  0.66900  0.36185  1.0000
