data_image0
_chemical_formula_structural       Ga10P10
_chemical_formula_sum              "Ga10 P10"
_cell_length_a       5.75072
_cell_length_b       9.4778
_cell_length_c       9.97517
_cell_angle_alpha    90
_cell_angle_beta     90
_cell_angle_gamma    90

_space_group_name_H-M_alt    "P 1"
_space_group_IT_number       1

loop_
  _space_group_symop_operation_xyz
  'x, y, z'

loop_
  _atom_site_type_symbol
  _atom_site_label
  _atom_site_symmetry_multiplicity
  _atom_site_fract_x
  _atom_site_fract_y
  _atom_site_fract_z
  _atom_site_occupancy
  Ga  Ga1       1.0  0.74223  0.00000  0.18489  1.0000
  Ga  Ga2       1.0  0.25777  0.00000  0.18489  1.0000
  Ga  Ga3       1.0  0.75777  0.50000  0.81511  1.0000
  Ga  Ga4       1.0  0.24223  0.50000  0.81511  1.0000
  Ga  Ga5       1.0  0.50000  0.64199  0.62862  1.0000
  Ga  Ga6       1.0  0.50000  0.35801  0.62862  1.0000
  Ga  Ga7       1.0  0.00000  0.85801  0.37138  1.0000
  Ga  Ga8       1.0  0.00000  0.14199  0.37138  1.0000
  Ga  Ga9       1.0  0.50000  0.50000  0.04188  1.0000
  Ga  Ga10      1.0  0.00000  0.00000  0.95812  1.0000
  P   P1        1.0  0.50000  0.82000  0.91432  1.0000
  P   P2        1.0  0.50000  0.18000  0.91432  1.0000
  P   P3        1.0  0.00000  0.68000  0.08568  1.0000
  P   P4        1.0  0.00000  0.32000  0.08568  1.0000
  P   P5        1.0  0.50000  0.69870  0.30943  1.0000
  P   P6        1.0  0.50000  0.30130  0.30943  1.0000
  P   P7        1.0  0.00000  0.80130  0.69057  1.0000
  P   P8        1.0  0.00000  0.19870  0.69057  1.0000
  P   P9        1.0  0.50000  0.00000  0.50775  1.0000
  P   P10       1.0  0.00000  0.50000  0.49225  1.0000
