data_image0
_chemical_formula_structural       Ga3P3
_chemical_formula_sum              "Ga3 P3"
_cell_length_a       5.58536
_cell_length_b       5.5854
_cell_length_c       5.5854
_cell_angle_alpha    116.602
_cell_angle_beta     116.601
_cell_angle_gamma    116.601

_space_group_name_H-M_alt    "P 1"
_space_group_IT_number       1

loop_
  _space_group_symop_operation_xyz
  'x, y, z'

loop_
  _atom_site_type_symbol
  _atom_site_label
  _atom_site_symmetry_multiplicity
  _atom_site_fract_x
  _atom_site_fract_y
  _atom_site_fract_z
  _atom_site_occupancy
  Ga  Ga1       1.0  0.65966  0.39688  0.39688  1.0000
  Ga  Ga2       1.0  0.39688  0.39686  0.65963  1.0000
  Ga  Ga3       1.0  0.39688  0.65963  0.39686  1.0000
  P   P1        1.0  0.78351  0.11926  0.11926  1.0000
  P   P2        1.0  0.11924  0.11925  0.78353  1.0000
  P   P3        1.0  0.11924  0.78353  0.11925  1.0000
