data_image0
_chemical_formula_structural       Ga6P6
_chemical_formula_sum              "Ga6 P6"
_cell_length_a       6.29272
_cell_length_b       7.9237
_cell_length_c       7.92664
_cell_angle_alpha    120.012
_cell_angle_beta     90.0002
_cell_angle_gamma    89.9997

_space_group_name_H-M_alt    "P 1"
_space_group_IT_number       1

loop_
  _space_group_symop_operation_xyz
  'x, y, z'

loop_
  _atom_site_type_symbol
  _atom_site_label
  _atom_site_symmetry_multiplicity
  _atom_site_fract_x
  _atom_site_fract_y
  _atom_site_fract_z
  _atom_site_occupancy
  Ga  Ga1       1.0  0.29297  0.00021  0.00010  1.0000
  Ga  Ga2       1.0  0.70707  0.00020  0.00008  1.0000
  Ga  Ga3       1.0  0.23089  0.33318  0.66680  1.0000
  Ga  Ga4       1.0  0.76910  0.33318  0.66679  1.0000
  Ga  Ga5       1.0  0.22759  0.66657  0.33328  1.0000
  Ga  Ga6       1.0  0.77239  0.66656  0.33328  1.0000
  P   P1        1.0  0.00000  0.31953  0.99909  1.0000
  P   P2        1.0  0.00000  0.68077  0.68100  1.0000
  P   P3        1.0  0.00000  0.00134  0.31988  1.0000
  P   P4        1.0  0.50000  0.64716  0.00067  1.0000
  P   P5        1.0  0.49999  0.35227  0.35251  1.0000
  P   P6        1.0  0.49999  0.99882  0.64652  1.0000
