data_image0
_chemical_formula_structural       Ga4P4
_chemical_formula_sum              "Ga4 P4"
_cell_length_a       4.61628
_cell_length_b       5.52419
_cell_length_c       6.98132
_cell_angle_alpha    90
_cell_angle_beta     90
_cell_angle_gamma    90

_space_group_name_H-M_alt    "P 1"
_space_group_IT_number       1

loop_
  _space_group_symop_operation_xyz
  'x, y, z'

loop_
  _atom_site_type_symbol
  _atom_site_label
  _atom_site_symmetry_multiplicity
  _atom_site_fract_x
  _atom_site_fract_y
  _atom_site_fract_z
  _atom_site_occupancy
  Ga  Ga1       1.0  0.25000  0.84730  0.54146  1.0000
  Ga  Ga2       1.0  0.25000  0.65270  0.04146  1.0000
  Ga  Ga3       1.0  0.75000  0.15270  0.45854  1.0000
  Ga  Ga4       1.0  0.75000  0.34730  0.95854  1.0000
  P   P1        1.0  0.25000  0.35804  0.68323  1.0000
  P   P2        1.0  0.25000  0.14196  0.18323  1.0000
  P   P3        1.0  0.75000  0.64196  0.31677  1.0000
  P   P4        1.0  0.75000  0.85804  0.81677  1.0000
