data_image0
_chemical_formula_structural       Ga3P3
_chemical_formula_sum              "Ga3 P3"
_cell_length_a       8.12181
_cell_length_b       8.12181
_cell_length_c       5.05135
_cell_angle_alpha    90
_cell_angle_beta     90
_cell_angle_gamma    157.672

_space_group_name_H-M_alt    "P 1"
_space_group_IT_number       1

loop_
  _space_group_symop_operation_xyz
  'x, y, z'

loop_
  _atom_site_type_symbol
  _atom_site_label
  _atom_site_symmetry_multiplicity
  _atom_site_fract_x
  _atom_site_fract_y
  _atom_site_fract_z
  _atom_site_occupancy
  Ga  Ga1       1.0  0.33367  0.66633  0.00000  1.0000
  Ga  Ga2       1.0  0.10999  0.89001  0.50000  1.0000
  Ga  Ga3       1.0  0.77904  0.22096  0.50000  1.0000
  P   P1        1.0  0.99991  0.00009  0.00000  1.0000
  P   P2        1.0  0.66517  0.33483  0.00000  1.0000
  P   P3        1.0  0.44556  0.55444  0.50000  1.0000
