data_image0
_chemical_formula_structural       Ga4P4
_chemical_formula_sum              "Ga4 P4"
_cell_length_a       4.54495
_cell_length_b       7.24419
_cell_length_c       5.64597
_cell_angle_alpha    90
_cell_angle_beta     90
_cell_angle_gamma    90

_space_group_name_H-M_alt    "P 1"
_space_group_IT_number       1

loop_
  _space_group_symop_operation_xyz
  'x, y, z'

loop_
  _atom_site_type_symbol
  _atom_site_label
  _atom_site_symmetry_multiplicity
  _atom_site_fract_x
  _atom_site_fract_y
  _atom_site_fract_z
  _atom_site_occupancy
  Ga  Ga1       1.0  0.75000  0.81742  0.36139  1.0000
  Ga  Ga2       1.0  0.25000  0.18258  0.63861  1.0000
  Ga  Ga3       1.0  0.25000  0.68258  0.86139  1.0000
  Ga  Ga4       1.0  0.75000  0.31742  0.13861  1.0000
  P   P1        1.0  0.75000  0.95596  0.84688  1.0000
  P   P2        1.0  0.25000  0.04404  0.15312  1.0000
  P   P3        1.0  0.25000  0.54404  0.34688  1.0000
  P   P4        1.0  0.75000  0.45596  0.65312  1.0000
