data_image0
_chemical_formula_structural       Ga4P4
_chemical_formula_sum              "Ga4 P4"
_cell_length_a       8.39656
_cell_length_b       5.02904
_cell_length_c       6.57142
_cell_angle_alpha    112.498
_cell_angle_beta     89.1489
_cell_angle_gamma    89.9738

_space_group_name_H-M_alt    "P 1"
_space_group_IT_number       1

loop_
  _space_group_symop_operation_xyz
  'x, y, z'

loop_
  _atom_site_type_symbol
  _atom_site_label
  _atom_site_symmetry_multiplicity
  _atom_site_fract_x
  _atom_site_fract_y
  _atom_site_fract_z
  _atom_site_occupancy
  Ga  Ga1       1.0  0.37038  0.63720  0.27444  1.0000
  Ga  Ga2       1.0  0.12962  0.36279  0.72555  1.0000
  Ga  Ga3       1.0  0.87038  0.63720  0.27444  1.0000
  Ga  Ga4       1.0  0.62962  0.36279  0.72555  1.0000
  P   P1        1.0  0.37633  0.94337  0.88697  1.0000
  P   P2        1.0  0.12366  0.05663  0.11304  1.0000
  P   P3        1.0  0.87633  0.94337  0.88697  1.0000
  P   P4        1.0  0.62367  0.05663  0.11304  1.0000
