data_image0
_chemical_formula_structural       Ga2P2
_chemical_formula_sum              "Ga2 P2"
_cell_length_a       7.29302
_cell_length_b       7.29302
_cell_length_c       7.29302
_cell_angle_alpha    31.6189
_cell_angle_beta     31.6189
_cell_angle_gamma    31.6189

_space_group_name_H-M_alt    "P 1"
_space_group_IT_number       1

loop_
  _space_group_symop_operation_xyz
  'x, y, z'

loop_
  _atom_site_type_symbol
  _atom_site_label
  _atom_site_symmetry_multiplicity
  _atom_site_fract_x
  _atom_site_fract_y
  _atom_site_fract_z
  _atom_site_occupancy
  Ga  Ga1       1.0  0.63059  0.63059  0.63059  1.0000
  Ga  Ga2       1.0  0.36941  0.36941  0.36941  1.0000
  P   P1        1.0  0.90463  0.90463  0.90463  1.0000
  P   P2        1.0  0.09537  0.09537  0.09537  1.0000
