data_image0
_chemical_formula_structural       Ga4P4
_chemical_formula_sum              "Ga4 P4"
_cell_length_a       3.18493
_cell_length_b       5.53339
_cell_length_c       6.13126
_cell_angle_alpha    90.0057
_cell_angle_beta     90
_cell_angle_gamma    90

_space_group_name_H-M_alt    "P 1"
_space_group_IT_number       1

loop_
  _space_group_symop_operation_xyz
  'x, y, z'

loop_
  _atom_site_type_symbol
  _atom_site_label
  _atom_site_symmetry_multiplicity
  _atom_site_fract_x
  _atom_site_fract_y
  _atom_site_fract_z
  _atom_site_occupancy
  Ga  Ga1       1.0  0.25000  0.68972  0.93414  1.0000
  Ga  Ga2       1.0  0.75000  0.31028  0.06586  1.0000
  Ga  Ga3       1.0  0.25000  0.18970  0.56585  1.0000
  Ga  Ga4       1.0  0.75000  0.81030  0.43415  1.0000
  P   P1        1.0  0.25000  0.48607  0.29287  1.0000
  P   P2        1.0  0.75000  0.51393  0.70713  1.0000
  P   P3        1.0  0.25000  0.98607  0.20715  1.0000
  P   P4        1.0  0.75000  0.01393  0.79285  1.0000
