data_image0
_chemical_formula_structural       Ga6P6
_chemical_formula_sum              "Ga6 P6"
_cell_length_a       8.31102
_cell_length_b       8.31102
_cell_length_c       9.5649
_cell_angle_alpha    74.2188
_cell_angle_beta     74.2188
_cell_angle_gamma    25.2508

_space_group_name_H-M_alt    "P 1"
_space_group_IT_number       1

loop_
  _space_group_symop_operation_xyz
  'x, y, z'

loop_
  _atom_site_type_symbol
  _atom_site_label
  _atom_site_symmetry_multiplicity
  _atom_site_fract_x
  _atom_site_fract_y
  _atom_site_fract_z
  _atom_site_occupancy
  Ga  Ga1       1.0  0.95862  0.95862  0.82606  1.0000
  Ga  Ga2       1.0  0.04138  0.04138  0.17394  1.0000
  Ga  Ga3       1.0  0.66323  0.66323  0.82391  1.0000
  Ga  Ga4       1.0  0.33677  0.33677  0.17609  1.0000
  Ga  Ga5       1.0  0.34815  0.34815  0.55384  1.0000
  Ga  Ga6       1.0  0.65185  0.65185  0.44616  1.0000
  P   P1        1.0  0.36902  0.36902  0.92202  1.0000
  P   P2        1.0  0.63098  0.63098  0.07798  1.0000
  P   P3        1.0  0.25805  0.25805  0.79155  1.0000
  P   P4        1.0  0.74195  0.74195  0.20845  1.0000
  P   P5        1.0  0.93091  0.93091  0.59455  1.0000
  P   P6        1.0  0.06909  0.06909  0.40545  1.0000
