data_image0
_chemical_formula_structural       Ga5P5
_chemical_formula_sum              "Ga5 P5"
_cell_length_a       8.14488
_cell_length_b       8.14488
_cell_length_c       5.46442
_cell_angle_alpha    90
_cell_angle_beta     90
_cell_angle_gamma    139.875

_space_group_name_H-M_alt    "P 1"
_space_group_IT_number       1

loop_
  _space_group_symop_operation_xyz
  'x, y, z'

loop_
  _atom_site_type_symbol
  _atom_site_label
  _atom_site_symmetry_multiplicity
  _atom_site_fract_x
  _atom_site_fract_y
  _atom_site_fract_z
  _atom_site_occupancy
  Ga  Ga1       1.0  0.85757  0.45754  0.00000  1.0000
  Ga  Ga2       1.0  0.03266  0.42321  0.50000  1.0000
  Ga  Ga3       1.0  0.59911  0.59911  0.00000  1.0000
  Ga  Ga4       1.0  0.45754  0.85757  0.00000  1.0000
  Ga  Ga5       1.0  0.42321  0.03266  0.50000  1.0000
  P   P1        1.0  0.01683  0.21301  0.00000  1.0000
  P   P2        1.0  0.24939  0.24939  0.50000  1.0000
  P   P3        1.0  0.84351  0.64015  0.50000  1.0000
  P   P4        1.0  0.64015  0.84351  0.50000  1.0000
  P   P5        1.0  0.21301  0.01683  0.00000  1.0000
