data_image0
_chemical_formula_structural       Ga3P3
_chemical_formula_sum              "Ga3 P3"
_cell_length_a       5.7367
_cell_length_b       5.7367
_cell_length_c       6.84369
_cell_angle_alpha    74.84
_cell_angle_beta     74.84
_cell_angle_gamma    30.7025

_space_group_name_H-M_alt    "P 1"
_space_group_IT_number       1

loop_
  _space_group_symop_operation_xyz
  'x, y, z'

loop_
  _atom_site_type_symbol
  _atom_site_label
  _atom_site_symmetry_multiplicity
  _atom_site_fract_x
  _atom_site_fract_y
  _atom_site_fract_z
  _atom_site_occupancy
  Ga  Ga1       1.0  0.99902  0.99902  0.01680  1.0000
  Ga  Ga2       1.0  0.66751  0.66751  0.64781  1.0000
  Ga  Ga3       1.0  0.27842  0.27842  0.94689  1.0000
  P   P1        1.0  0.60820  0.60820  0.28387  1.0000
  P   P2        1.0  0.33628  0.33628  0.33362  1.0000
  P   P3        1.0  0.94389  0.94389  0.60434  1.0000
