data_image0
_chemical_formula_structural       Ga3P3
_chemical_formula_sum              "Ga3 P3"
_cell_length_a       6.38463
_cell_length_b       6.38463
_cell_length_c       8.31228
_cell_angle_alpha    71.6734
_cell_angle_beta     71.6734
_cell_angle_gamma    31.7514

_space_group_name_H-M_alt    "P 1"
_space_group_IT_number       1

loop_
  _space_group_symop_operation_xyz
  'x, y, z'

loop_
  _atom_site_type_symbol
  _atom_site_label
  _atom_site_symmetry_multiplicity
  _atom_site_fract_x
  _atom_site_fract_y
  _atom_site_fract_z
  _atom_site_occupancy
  Ga  Ga1       1.0  0.99871  0.99871  0.00446  1.0000
  Ga  Ga2       1.0  0.60159  0.60159  0.24587  1.0000
  Ga  Ga3       1.0  0.66741  0.66741  0.70188  1.0000
  P   P1        1.0  0.30718  0.30718  0.35517  1.0000
  P   P2        1.0  0.96856  0.96856  0.58595  1.0000
  P   P3        1.0  0.28988  0.28988  0.94001  1.0000
