data_image0
_chemical_formula_structural       Ga8P8
_chemical_formula_sum              "Ga8 P8"
_cell_length_a       2.93204
_cell_length_b       8.26931
_cell_length_c       5.86512
_cell_angle_alpha    89.9995
_cell_angle_beta     89.9952
_cell_angle_gamma    89.9996

_space_group_name_H-M_alt    "P 1"
_space_group_IT_number       1

loop_
  _space_group_symop_operation_xyz
  'x, y, z'

loop_
  _atom_site_type_symbol
  _atom_site_label
  _atom_site_symmetry_multiplicity
  _atom_site_fract_x
  _atom_site_fract_y
  _atom_site_fract_z
  _atom_site_occupancy
  Ga  Ga1       1.0  0.50026  0.74014  0.25013  1.0000
  Ga  Ga2       1.0  0.00011  0.00996  0.00006  1.0000
  Ga  Ga3       1.0  0.50006  0.24008  0.25003  1.0000
  Ga  Ga4       1.0  0.99992  0.50990  0.49996  1.0000
  Ga  Ga5       1.0  0.50026  0.74014  0.75013  1.0000
  Ga  Ga6       1.0  0.00011  0.00996  0.50006  1.0000
  Ga  Ga7       1.0  0.50006  0.24008  0.75003  1.0000
  Ga  Ga8       1.0  0.99992  0.50990  0.99996  1.0000
  P   P1        1.0  0.99984  0.75754  0.49992  1.0000
  P   P2        1.0  0.49974  0.99232  0.24987  1.0000
  P   P3        1.0  0.00007  0.25756  0.00004  1.0000
  P   P4        1.0  0.49998  0.49250  0.24999  1.0000
  P   P5        1.0  0.99984  0.75754  0.99992  1.0000
  P   P6        1.0  0.49974  0.99232  0.74987  1.0000
  P   P7        1.0  0.00007  0.25756  0.50004  1.0000
  P   P8        1.0  0.49998  0.49250  0.75000  1.0000
