data_image0
_chemical_formula_structural       Ga6P6
_chemical_formula_sum              "Ga6 P6"
_cell_length_a       4.98877
_cell_length_b       5.07143
_cell_length_c       8.93323
_cell_angle_alpha    94.8513
_cell_angle_beta     93.2172
_cell_angle_gamma    107.533

_space_group_name_H-M_alt    "P 1"
_space_group_IT_number       1

loop_
  _space_group_symop_operation_xyz
  'x, y, z'

loop_
  _atom_site_type_symbol
  _atom_site_label
  _atom_site_symmetry_multiplicity
  _atom_site_fract_x
  _atom_site_fract_y
  _atom_site_fract_z
  _atom_site_occupancy
  Ga  Ga1       1.0  0.16040  0.12764  0.17551  1.0000
  Ga  Ga2       1.0  0.68356  0.67287  0.84539  1.0000
  Ga  Ga3       1.0  0.19507  0.71812  0.99862  1.0000
  Ga  Ga4       1.0  0.63249  0.64791  0.16217  1.0000
  Ga  Ga5       1.0  0.68637  0.69562  0.47631  1.0000
  Ga  Ga6       1.0  0.12530  0.12343  0.50661  1.0000
  P   P1        1.0  0.70284  0.18795  0.01383  1.0000
  P   P2        1.0  0.65220  0.17621  0.66516  1.0000
  P   P3        1.0  0.17600  0.65352  0.65950  1.0000
  P   P4        1.0  0.65421  0.16610  0.33560  1.0000
  P   P5        1.0  0.17754  0.18741  0.84890  1.0000
  P   P6        1.0  0.15420  0.64311  0.31249  1.0000
