data_image0
_chemical_formula_structural       Ga4P4
_chemical_formula_sum              "Ga4 P4"
_cell_length_a       3.4914
_cell_length_b       7.30048
_cell_length_c       6.68397
_cell_angle_alpha    90
_cell_angle_beta     90
_cell_angle_gamma    90

_space_group_name_H-M_alt    "P 1"
_space_group_IT_number       1

loop_
  _space_group_symop_operation_xyz
  'x, y, z'

loop_
  _atom_site_type_symbol
  _atom_site_label
  _atom_site_symmetry_multiplicity
  _atom_site_fract_x
  _atom_site_fract_y
  _atom_site_fract_z
  _atom_site_occupancy
  Ga  Ga1       1.0  0.25863  0.00116  0.14598  1.0000
  Ga  Ga2       1.0  0.75863  0.99884  0.85402  1.0000
  Ga  Ga3       1.0  0.75863  0.49884  0.64598  1.0000
  Ga  Ga4       1.0  0.25863  0.50116  0.35402  1.0000
  P   P1        1.0  0.25867  0.18747  0.57837  1.0000
  P   P2        1.0  0.75867  0.81253  0.42163  1.0000
  P   P3        1.0  0.75867  0.31253  0.07837  1.0000
  P   P4        1.0  0.25867  0.68747  0.92163  1.0000
