data_image0
_chemical_formula_structural       Ga4P4
_chemical_formula_sum              "Ga4 P4"
_cell_length_a       3.34278
_cell_length_b       5.7315
_cell_length_c       6.36869
_cell_angle_alpha    90
_cell_angle_beta     90
_cell_angle_gamma    90

_space_group_name_H-M_alt    "P 1"
_space_group_IT_number       1

loop_
  _space_group_symop_operation_xyz
  'x, y, z'

loop_
  _atom_site_type_symbol
  _atom_site_label
  _atom_site_symmetry_multiplicity
  _atom_site_fract_x
  _atom_site_fract_y
  _atom_site_fract_z
  _atom_site_occupancy
  Ga  Ga1       1.0  0.25000  0.49457  0.29554  1.0000
  Ga  Ga2       1.0  0.75000  0.50543  0.70446  1.0000
  Ga  Ga3       1.0  0.25000  0.99457  0.20446  1.0000
  Ga  Ga4       1.0  0.75000  0.00543  0.79554  1.0000
  P   P1        1.0  0.25000  0.69622  0.93010  1.0000
  P   P2        1.0  0.75000  0.30378  0.06990  1.0000
  P   P3        1.0  0.25000  0.19622  0.56990  1.0000
  P   P4        1.0  0.75000  0.80378  0.43010  1.0000
