data_image0
_chemical_formula_structural       Ga3P3
_chemical_formula_sum              "Ga3 P3"
_cell_length_a       9.73038
_cell_length_b       9.73038
_cell_length_c       6.00612
_cell_angle_alpha    90
_cell_angle_beta     90
_cell_angle_gamma    156.42

_space_group_name_H-M_alt    "P 1"
_space_group_IT_number       1

loop_
  _space_group_symop_operation_xyz
  'x, y, z'

loop_
  _atom_site_type_symbol
  _atom_site_label
  _atom_site_symmetry_multiplicity
  _atom_site_fract_x
  _atom_site_fract_y
  _atom_site_fract_z
  _atom_site_occupancy
  Ga  Ga1       1.0  0.98035  0.01965  0.00000  1.0000
  Ga  Ga2       1.0  0.68414  0.31587  0.00000  1.0000
  Ga  Ga3       1.0  0.10987  0.89013  0.50000  1.0000
  P   P1        1.0  0.33350  0.66650  0.00000  1.0000
  P   P2        1.0  0.43268  0.56732  0.50000  1.0000
  P   P3        1.0  0.79280  0.20720  0.50000  1.0000
