data_image0
_chemical_formula_structural       Ga4P4
_chemical_formula_sum              "Ga4 P4"
_cell_length_a       3.325
_cell_length_b       6.65
_cell_length_c       6.1665
_cell_angle_alpha    105.641
_cell_angle_beta     105.641
_cell_angle_gamma    90

_space_group_name_H-M_alt    "P 1"
_space_group_IT_number       1

loop_
  _space_group_symop_operation_xyz
  'x, y, z'

loop_
  _atom_site_type_symbol
  _atom_site_label
  _atom_site_symmetry_multiplicity
  _atom_site_fract_x
  _atom_site_fract_y
  _atom_site_fract_z
  _atom_site_occupancy
  Ga  Ga1       1.0  0.66642  0.08321  0.33283  1.0000
  Ga  Ga2       1.0  0.41642  0.20821  0.83283  1.0000
  Ga  Ga3       1.0  0.66642  0.58321  0.33283  1.0000
  Ga  Ga4       1.0  0.41642  0.70821  0.83283  1.0000
  P   P1        1.0  0.24958  0.37479  0.49917  1.0000
  P   P2        1.0  0.99958  0.49979  0.99917  1.0000
  P   P3        1.0  0.24958  0.87479  0.49917  1.0000
  P   P4        1.0  0.99958  0.99979  0.99917  1.0000
