data_image0
_chemical_formula_structural       Ga4P4
_chemical_formula_sum              "Ga4 P4"
_cell_length_a       7.75945
_cell_length_b       7.75945
_cell_length_c       7.75945
_cell_angle_alpha    144.128
_cell_angle_beta     144.128
_cell_angle_gamma    51.6354

_space_group_name_H-M_alt    "P 1"
_space_group_IT_number       1

loop_
  _space_group_symop_operation_xyz
  'x, y, z'

loop_
  _atom_site_type_symbol
  _atom_site_label
  _atom_site_symmetry_multiplicity
  _atom_site_fract_x
  _atom_site_fract_y
  _atom_site_fract_z
  _atom_site_occupancy
  Ga  Ga1       1.0  0.03653  0.72158  0.00000  1.0000
  Ga  Ga2       1.0  0.72158  0.03653  0.00000  1.0000
  Ga  Ga3       1.0  0.96347  0.96347  0.68505  1.0000
  Ga  Ga4       1.0  0.27842  0.27842  0.31495  1.0000
  P   P1        1.0  0.72330  0.72330  0.00000  1.0000
  P   P2        1.0  0.27670  0.27670  0.00000  1.0000
  P   P3        1.0  0.00000  0.50000  0.50000  1.0000
  P   P4        1.0  0.50000  0.00000  0.50000  1.0000
