data_image0
_chemical_formula_structural       Ga3P3
_chemical_formula_sum              "Ga3 P3"
_cell_length_a       6.71174
_cell_length_b       6.71174
_cell_length_c       8.12168
_cell_angle_alpha    73.6395
_cell_angle_beta     73.6395
_cell_angle_gamma    30.805

_space_group_name_H-M_alt    "P 1"
_space_group_IT_number       1

loop_
  _space_group_symop_operation_xyz
  'x, y, z'

loop_
  _atom_site_type_symbol
  _atom_site_label
  _atom_site_symmetry_multiplicity
  _atom_site_fract_x
  _atom_site_fract_y
  _atom_site_fract_z
  _atom_site_occupancy
  Ga  Ga1       1.0  0.33573  0.33573  0.35230  1.0000
  Ga  Ga2       1.0  0.93047  0.93047  0.60603  1.0000
  Ga  Ga3       1.0  0.29463  0.29463  0.91779  1.0000
  P   P1        1.0  0.99967  0.99967  0.01476  1.0000
  P   P2        1.0  0.62723  0.62723  0.25801  1.0000
  P   P3        1.0  0.64560  0.64560  0.68444  1.0000
