data_image0
_chemical_formula_structural       Ga4P4
_chemical_formula_sum              "Ga4 P4"
_cell_length_a       3.20809
_cell_length_b       5.79285
_cell_length_c       5.84974
_cell_angle_alpha    90
_cell_angle_beta     90
_cell_angle_gamma    90

_space_group_name_H-M_alt    "P 1"
_space_group_IT_number       1

loop_
  _space_group_symop_operation_xyz
  'x, y, z'

loop_
  _atom_site_type_symbol
  _atom_site_label
  _atom_site_symmetry_multiplicity
  _atom_site_fract_x
  _atom_site_fract_y
  _atom_site_fract_z
  _atom_site_occupancy
  Ga  Ga1       1.0  0.75000  0.92316  0.71978  1.0000
  Ga  Ga2       1.0  0.25000  0.07684  0.28022  1.0000
  Ga  Ga3       1.0  0.25000  0.42316  0.78022  1.0000
  Ga  Ga4       1.0  0.75000  0.57684  0.21978  1.0000
  P   P1        1.0  0.25000  0.80226  0.98970  1.0000
  P   P2        1.0  0.25000  0.69774  0.48970  1.0000
  P   P3        1.0  0.75000  0.30226  0.51030  1.0000
  P   P4        1.0  0.75000  0.19774  0.01030  1.0000
