data_image0
_chemical_formula_structural       Ga3P3
_chemical_formula_sum              "Ga3 P3"
_cell_length_a       5.66153
_cell_length_b       5.66153
_cell_length_c       7.4496
_cell_angle_alpha    76.1009
_cell_angle_beta     76.1009
_cell_angle_gamma    30.4156

_space_group_name_H-M_alt    "P 1"
_space_group_IT_number       1

loop_
  _space_group_symop_operation_xyz
  'x, y, z'

loop_
  _atom_site_type_symbol
  _atom_site_label
  _atom_site_symmetry_multiplicity
  _atom_site_fract_x
  _atom_site_fract_y
  _atom_site_fract_z
  _atom_site_occupancy
  Ga  Ga1       1.0  0.00447  0.00447  0.98198  1.0000
  Ga  Ga2       1.0  0.66321  0.66321  0.69576  1.0000
  Ga  Ga3       1.0  0.27798  0.27798  0.93356  1.0000
  P   P1        1.0  0.61181  0.61181  0.27535  1.0000
  P   P2        1.0  0.33390  0.33390  0.32760  1.0000
  P   P3        1.0  0.94195  0.94195  0.61909  1.0000
