data_image0
_chemical_formula_structural       Ga4P4
_chemical_formula_sum              "Ga4 P4"
_cell_length_a       8.94577
_cell_length_b       4.96721
_cell_length_c       7.44645
_cell_angle_alpha    52.2487
_cell_angle_beta     90
_cell_angle_gamma    90

_space_group_name_H-M_alt    "P 1"
_space_group_IT_number       1

loop_
  _space_group_symop_operation_xyz
  'x, y, z'

loop_
  _atom_site_type_symbol
  _atom_site_label
  _atom_site_symmetry_multiplicity
  _atom_site_fract_x
  _atom_site_fract_y
  _atom_site_fract_z
  _atom_site_occupancy
  Ga  Ga1       1.0  0.36655  0.59937  0.09177  1.0000
  Ga  Ga2       1.0  0.13345  0.59937  0.59177  1.0000
  Ga  Ga3       1.0  0.63345  0.40063  0.90823  1.0000
  Ga  Ga4       1.0  0.86655  0.40063  0.40823  1.0000
  P   P1        1.0  0.34580  0.16321  0.62813  1.0000
  P   P2        1.0  0.15420  0.16320  0.12813  1.0000
  P   P3        1.0  0.65420  0.83679  0.37187  1.0000
  P   P4        1.0  0.84580  0.83680  0.87187  1.0000
