data_image0
_chemical_formula_structural       Ga3P3
_chemical_formula_sum              "Ga3 P3"
_cell_length_a       4.41892
_cell_length_b       4.42251
_cell_length_c       9.9016
_cell_angle_alpha    89.9531
_cell_angle_beta     90.0254
_cell_angle_gamma    119.971

_space_group_name_H-M_alt    "P 1"
_space_group_IT_number       1

loop_
  _space_group_symop_operation_xyz
  'x, y, z'

loop_
  _atom_site_type_symbol
  _atom_site_label
  _atom_site_symmetry_multiplicity
  _atom_site_fract_x
  _atom_site_fract_y
  _atom_site_fract_z
  _atom_site_occupancy
  Ga  Ga1       1.0  0.72135  0.72178  0.99992  1.0000
  Ga  Ga2       1.0  0.27838  0.99990  0.66659  1.0000
  Ga  Ga3       1.0  0.00000  0.27791  0.33326  1.0000
  P   P1        1.0  0.49376  0.49373  0.49993  1.0000
  P   P2        1.0  0.50595  0.00020  0.16657  1.0000
  P   P3        1.0  0.00057  0.50648  0.83353  1.0000
