data_image0
_chemical_formula_structural       GaP
_chemical_formula_sum              "Ga1 P1"
_cell_length_a       9.90723
_cell_length_b       9.90723
_cell_length_c       5.94973
_cell_angle_alpha    77.459
_cell_angle_beta     77.459
_cell_angle_gamma    84.974

_space_group_name_H-M_alt    "P 1"
_space_group_IT_number       1

loop_
  _space_group_symop_operation_xyz
  'x, y, z'

loop_
  _atom_site_type_symbol
  _atom_site_label
  _atom_site_symmetry_multiplicity
  _atom_site_fract_x
  _atom_site_fract_y
  _atom_site_fract_z
  _atom_site_occupancy
  Ga  Ga1       1.0  0.00632  0.00632  0.97215  1.0000
  P   P1        1.0  0.95168  0.95168  0.63285  1.0000
