data_image0
_chemical_formula_structural       Ga4P4
_chemical_formula_sum              "Ga4 P4"
_cell_length_a       4.61913
_cell_length_b       5.74409
_cell_length_c       7.41845
_cell_angle_alpha    90
_cell_angle_beta     90
_cell_angle_gamma    90

_space_group_name_H-M_alt    "P 1"
_space_group_IT_number       1

loop_
  _space_group_symop_operation_xyz
  'x, y, z'

loop_
  _atom_site_type_symbol
  _atom_site_label
  _atom_site_symmetry_multiplicity
  _atom_site_fract_x
  _atom_site_fract_y
  _atom_site_fract_z
  _atom_site_occupancy
  Ga  Ga1       1.0  0.25000  0.84746  0.54442  1.0000
  Ga  Ga2       1.0  0.25000  0.65254  0.04442  1.0000
  Ga  Ga3       1.0  0.75000  0.15254  0.45558  1.0000
  Ga  Ga4       1.0  0.75000  0.34746  0.95558  1.0000
  P   P1        1.0  0.25000  0.36195  0.68313  1.0000
  P   P2        1.0  0.25000  0.13805  0.18313  1.0000
  P   P3        1.0  0.75000  0.63805  0.31687  1.0000
  P   P4        1.0  0.75000  0.86195  0.81687  1.0000
