data_image0
_chemical_formula_structural       Ga3P3
_chemical_formula_sum              "Ga3 P3"
_cell_length_a       6.83707
_cell_length_b       6.83707
_cell_length_c       7.08107
_cell_angle_alpha    74.7018
_cell_angle_beta     74.7018
_cell_angle_gamma    27.8204

_space_group_name_H-M_alt    "P 1"
_space_group_IT_number       1

loop_
  _space_group_symop_operation_xyz
  'x, y, z'

loop_
  _atom_site_type_symbol
  _atom_site_label
  _atom_site_symmetry_multiplicity
  _atom_site_fract_x
  _atom_site_fract_y
  _atom_site_fract_z
  _atom_site_occupancy
  Ga  Ga1       1.0  0.61358  0.61358  0.27901  1.0000
  Ga  Ga2       1.0  0.32799  0.32799  0.33566  1.0000
  Ga  Ga3       1.0  0.27804  0.27804  0.93696  1.0000
  P   P1        1.0  0.99420  0.99420  0.01702  1.0000
  P   P2        1.0  0.94387  0.94387  0.60113  1.0000
  P   P3        1.0  0.67564  0.67564  0.66356  1.0000
