data_image0
_chemical_formula_structural       Ga2P2
_chemical_formula_sum              "Ga2 P2"
_cell_length_a       5.85463
_cell_length_b       5.85463
_cell_length_c       5.9437
_cell_angle_alpha    69.4461
_cell_angle_beta     69.4461
_cell_angle_gamma    33.6078

_space_group_name_H-M_alt    "P 1"
_space_group_IT_number       1

loop_
  _space_group_symop_operation_xyz
  'x, y, z'

loop_
  _atom_site_type_symbol
  _atom_site_label
  _atom_site_symmetry_multiplicity
  _atom_site_fract_x
  _atom_site_fract_y
  _atom_site_fract_z
  _atom_site_occupancy
  Ga  Ga1       1.0  0.37100  0.37100  0.93419  1.0000
  Ga  Ga2       1.0  0.62900  0.62900  0.06581  1.0000
  P   P1        1.0  0.14303  0.14303  0.55532  1.0000
  P   P2        1.0  0.85697  0.85697  0.44468  1.0000
