data_image0
_chemical_formula_structural       Ga4P4
_chemical_formula_sum              "Ga4 P4"
_cell_length_a       3.12785
_cell_length_b       5.03075
_cell_length_c       5.31987
_cell_angle_alpha    96.3482
_cell_angle_beta     72.903
_cell_angle_gamma    89.9901

_space_group_name_H-M_alt    "P 1"
_space_group_IT_number       1

loop_
  _space_group_symop_operation_xyz
  'x, y, z'

loop_
  _atom_site_type_symbol
  _atom_site_label
  _atom_site_symmetry_multiplicity
  _atom_site_fract_x
  _atom_site_fract_y
  _atom_site_fract_z
  _atom_site_occupancy
  Ga  Ga1       1.0  0.49901  0.49167  0.00201  1.0000
  Ga  Ga2       1.0  0.75099  0.75833  0.49799  1.0000
  Ga  Ga3       1.0  0.99901  0.99167  0.00201  1.0000
  Ga  Ga4       1.0  0.25099  0.25833  0.49799  1.0000
  P   P1        1.0  0.87500  0.37500  0.25000  1.0000
  P   P2        1.0  0.12500  0.62500  0.75000  1.0000
  P   P3        1.0  0.37500  0.87500  0.25000  1.0000
  P   P4        1.0  0.62500  0.12500  0.75000  1.0000
