data_image0
_chemical_formula_structural       Ga3P3
_chemical_formula_sum              "Ga3 P3"
_cell_length_a       5.39514
_cell_length_b       5.39514
_cell_length_c       7.55891
_cell_angle_alpha    71.3218
_cell_angle_beta     71.3218
_cell_angle_gamma    33.3384

_space_group_name_H-M_alt    "P 1"
_space_group_IT_number       1

loop_
  _space_group_symop_operation_xyz
  'x, y, z'

loop_
  _atom_site_type_symbol
  _atom_site_label
  _atom_site_symmetry_multiplicity
  _atom_site_fract_x
  _atom_site_fract_y
  _atom_site_fract_z
  _atom_site_occupancy
  Ga  Ga1       1.0  0.03178  0.03178  0.98058  1.0000
  Ga  Ga2       1.0  0.35945  0.35945  0.73938  1.0000
  Ga  Ga3       1.0  0.33746  0.33746  0.33377  1.0000
  P   P1        1.0  0.64822  0.64822  0.64338  1.0000
  P   P2        1.0  0.05218  0.05218  0.38820  1.0000
  P   P3        1.0  0.73758  0.73758  0.08136  1.0000
