data_image0
_chemical_formula_structural       Ga6P6
_chemical_formula_sum              "Ga6 P6"
_cell_length_a       7.28786
_cell_length_b       7.28786
_cell_length_c       6.99587
_cell_angle_alpha    90
_cell_angle_beta     90
_cell_angle_gamma    135.766

_space_group_name_H-M_alt    "P 1"
_space_group_IT_number       1

loop_
  _space_group_symop_operation_xyz
  'x, y, z'

loop_
  _atom_site_type_symbol
  _atom_site_label
  _atom_site_symmetry_multiplicity
  _atom_site_fract_x
  _atom_site_fract_y
  _atom_site_fract_z
  _atom_site_occupancy
  Ga  Ga1       1.0  0.63741  0.63741  0.16811  1.0000
  Ga  Ga2       1.0  0.36259  0.36259  0.66811  1.0000
  Ga  Ga3       1.0  0.97507  0.25119  0.32943  1.0000
  Ga  Ga4       1.0  0.25119  0.97507  0.32943  1.0000
  Ga  Ga5       1.0  0.02493  0.74881  0.82943  1.0000
  Ga  Ga6       1.0  0.74881  0.02493  0.82943  1.0000
  P   P1        1.0  0.93856  0.93856  0.50935  1.0000
  P   P2        1.0  0.06144  0.06144  0.00935  1.0000
  P   P3        1.0  0.68512  0.38929  0.00664  1.0000
  P   P4        1.0  0.38929  0.68512  0.00664  1.0000
  P   P5        1.0  0.31488  0.61071  0.50664  1.0000
  P   P6        1.0  0.61071  0.31488  0.50664  1.0000
