data_image0
_chemical_formula_structural       Ga4P4
_chemical_formula_sum              "Ga4 P4"
_cell_length_a       5.03176
_cell_length_b       3.15334
_cell_length_c       8.98897
_cell_angle_alpha    88.386
_cell_angle_beta     90
_cell_angle_gamma    90

_space_group_name_H-M_alt    "P 1"
_space_group_IT_number       1

loop_
  _space_group_symop_operation_xyz
  'x, y, z'

loop_
  _atom_site_type_symbol
  _atom_site_label
  _atom_site_symmetry_multiplicity
  _atom_site_fract_x
  _atom_site_fract_y
  _atom_site_fract_z
  _atom_site_occupancy
  Ga  Ga1       1.0  0.59721  0.27337  0.84633  1.0000
  Ga  Ga2       1.0  0.40279  0.72663  0.15367  1.0000
  Ga  Ga3       1.0  0.90279  0.27337  0.34633  1.0000
  Ga  Ga4       1.0  0.09721  0.72663  0.65367  1.0000
  P   P1        1.0  0.30272  0.28220  0.86785  1.0000
  P   P2        1.0  0.69728  0.71780  0.13215  1.0000
  P   P3        1.0  0.19728  0.28220  0.36785  1.0000
  P   P4        1.0  0.80272  0.71780  0.63215  1.0000
