data_image0
_chemical_formula_structural       Ga4P4
_chemical_formula_sum              "Ga4 P4"
_cell_length_a       4.99178
_cell_length_b       6.67117
_cell_length_c       8.75728
_cell_angle_alpha    90
_cell_angle_beta     90
_cell_angle_gamma    90

_space_group_name_H-M_alt    "P 1"
_space_group_IT_number       1

loop_
  _space_group_symop_operation_xyz
  'x, y, z'

loop_
  _atom_site_type_symbol
  _atom_site_label
  _atom_site_symmetry_multiplicity
  _atom_site_fract_x
  _atom_site_fract_y
  _atom_site_fract_z
  _atom_site_occupancy
  Ga  Ga1       1.0  0.25000  0.61184  0.03318  1.0000
  Ga  Ga2       1.0  0.75000  0.38816  0.96682  1.0000
  Ga  Ga3       1.0  0.75000  0.11184  0.46682  1.0000
  Ga  Ga4       1.0  0.25000  0.88816  0.53318  1.0000
  P   P1        1.0  0.25000  0.13011  0.18114  1.0000
  P   P2        1.0  0.75000  0.86989  0.81886  1.0000
  P   P3        1.0  0.75000  0.63011  0.31886  1.0000
  P   P4        1.0  0.25000  0.36989  0.68114  1.0000
