data_image0
_chemical_formula_structural       Ga2P2
_chemical_formula_sum              "Ga2 P2"
_cell_length_a       8.83411
_cell_length_b       8.83411
_cell_length_c       8.83411
_cell_angle_alpha    158.238
_cell_angle_beta     158.238
_cell_angle_gamma    30.9674

_space_group_name_H-M_alt    "P 1"
_space_group_IT_number       1

loop_
  _space_group_symop_operation_xyz
  'x, y, z'

loop_
  _atom_site_type_symbol
  _atom_site_label
  _atom_site_symmetry_multiplicity
  _atom_site_fract_x
  _atom_site_fract_y
  _atom_site_fract_z
  _atom_site_occupancy
  Ga  Ga1       1.0  0.18181  0.18181  0.00000  1.0000
  Ga  Ga2       1.0  0.81819  0.81819  0.00000  1.0000
  P   P1        1.0  0.32040  0.32040  0.00000  1.0000
  P   P2        1.0  0.67960  0.67960  0.00000  1.0000
