data_image0
_chemical_formula_structural       Ga2P2
_chemical_formula_sum              "Ga2 P2"
_cell_length_a       2.9049
_cell_length_b       2.92077
_cell_length_c       4.06055
_cell_angle_alpha    90
_cell_angle_beta     69.0411
_cell_angle_gamma    90

_space_group_name_H-M_alt    "P 1"
_space_group_IT_number       1

loop_
  _space_group_symop_operation_xyz
  'x, y, z'

loop_
  _atom_site_type_symbol
  _atom_site_label
  _atom_site_symmetry_multiplicity
  _atom_site_fract_x
  _atom_site_fract_y
  _atom_site_fract_z
  _atom_site_occupancy
  Ga  Ga1       1.0  0.14577  0.75000  0.70846  1.0000
  Ga  Ga2       1.0  0.85423  0.25000  0.29154  1.0000
  P   P1        1.0  0.43339  0.75000  0.13322  1.0000
  P   P2        1.0  0.56661  0.25000  0.86678  1.0000
