data_image0
_chemical_formula_structural       Ga4P4
_chemical_formula_sum              "Ga4 P4"
_cell_length_a       7.63913
_cell_length_b       5.77494
_cell_length_c       8.29711
_cell_angle_alpha    47.819
_cell_angle_beta     90
_cell_angle_gamma    90

_space_group_name_H-M_alt    "P 1"
_space_group_IT_number       1

loop_
  _space_group_symop_operation_xyz
  'x, y, z'

loop_
  _atom_site_type_symbol
  _atom_site_label
  _atom_site_symmetry_multiplicity
  _atom_site_fract_x
  _atom_site_fract_y
  _atom_site_fract_z
  _atom_site_occupancy
  Ga  Ga1       1.0  0.81687  0.62950  0.88895  1.0000
  Ga  Ga2       1.0  0.68313  0.62950  0.38895  1.0000
  Ga  Ga3       1.0  0.18313  0.37050  0.11105  1.0000
  Ga  Ga4       1.0  0.31687  0.37050  0.61105  1.0000
  P   P1        1.0  0.84934  0.24768  0.78389  1.0000
  P   P2        1.0  0.65066  0.24768  0.28389  1.0000
  P   P3        1.0  0.15066  0.75232  0.21611  1.0000
  P   P4        1.0  0.34934  0.75232  0.71611  1.0000
