data_image0
_chemical_formula_structural       Ga4P4
_chemical_formula_sum              "Ga4 P4"
_cell_length_a       2.60782
_cell_length_b       4.56895
_cell_length_c       8.15338
_cell_angle_alpha    90
_cell_angle_beta     90
_cell_angle_gamma    90

_space_group_name_H-M_alt    "P 1"
_space_group_IT_number       1

loop_
  _space_group_symop_operation_xyz
  'x, y, z'

loop_
  _atom_site_type_symbol
  _atom_site_label
  _atom_site_symmetry_multiplicity
  _atom_site_fract_x
  _atom_site_fract_y
  _atom_site_fract_z
  _atom_site_occupancy
  Ga  Ga1       1.0  0.50000  0.25242  0.83687  1.0000
  Ga  Ga2       1.0  0.50000  0.25242  0.16313  1.0000
  Ga  Ga3       1.0  0.50000  0.74758  0.33687  1.0000
  Ga  Ga4       1.0  0.50000  0.74758  0.66313  1.0000
  P   P1        1.0  0.50000  0.75437  0.90132  1.0000
  P   P2        1.0  0.50000  0.75437  0.09868  1.0000
  P   P3        1.0  0.50000  0.24563  0.40132  1.0000
  P   P4        1.0  0.50000  0.24563  0.59868  1.0000
