data_image0
_chemical_formula_structural       Ga6P6
_chemical_formula_sum              "Ga6 P6"
_cell_length_a       3.67583
_cell_length_b       8.62054
_cell_length_c       9.88535
_cell_angle_alpha    109.037
_cell_angle_beta     89.8926
_cell_angle_gamma    102.447

_space_group_name_H-M_alt    "P 1"
_space_group_IT_number       1

loop_
  _space_group_symop_operation_xyz
  'x, y, z'

loop_
  _atom_site_type_symbol
  _atom_site_label
  _atom_site_symmetry_multiplicity
  _atom_site_fract_x
  _atom_site_fract_y
  _atom_site_fract_z
  _atom_site_occupancy
  Ga  Ga1       1.0  0.13319  0.26844  0.41180  1.0000
  Ga  Ga2       1.0  0.86681  0.73156  0.58820  1.0000
  Ga  Ga3       1.0  0.23570  0.46920  0.29649  1.0000
  Ga  Ga4       1.0  0.76430  0.53080  0.70351  1.0000
  Ga  Ga5       1.0  0.56628  0.13176  0.09087  1.0000
  Ga  Ga6       1.0  0.43372  0.86824  0.90913  1.0000
  P   P1        1.0  0.14846  0.29374  0.05184  1.0000
  P   P2        1.0  0.85154  0.70626  0.94816  1.0000
  P   P3        1.0  0.16854  0.34113  0.66574  1.0000
  P   P4        1.0  0.83146  0.65887  0.33426  1.0000
  P   P5        1.0  0.54043  0.08379  0.31789  1.0000
  P   P6        1.0  0.45957  0.91621  0.68211  1.0000
