data_image0
_chemical_formula_structural       Ga6P6
_chemical_formula_sum              "Ga6 P6"
_cell_length_a       5.4933
_cell_length_b       6.13144
_cell_length_c       8.49528
_cell_angle_alpha    83.435
_cell_angle_beta     90
_cell_angle_gamma    90

_space_group_name_H-M_alt    "P 1"
_space_group_IT_number       1

loop_
  _space_group_symop_operation_xyz
  'x, y, z'

loop_
  _atom_site_type_symbol
  _atom_site_label
  _atom_site_symmetry_multiplicity
  _atom_site_fract_x
  _atom_site_fract_y
  _atom_site_fract_z
  _atom_site_occupancy
  Ga  Ga1       1.0  0.25000  0.78868  0.30040  1.0000
  Ga  Ga2       1.0  0.75000  0.86118  0.08265  1.0000
  Ga  Ga3       1.0  0.75000  0.35806  0.07766  1.0000
  Ga  Ga4       1.0  0.25000  0.64194  0.92234  1.0000
  Ga  Ga5       1.0  0.25000  0.13882  0.91735  1.0000
  Ga  Ga6       1.0  0.75000  0.21133  0.69960  1.0000
  P   P1        1.0  0.25000  0.44845  0.59123  1.0000
  P   P2        1.0  0.25000  0.94329  0.61523  1.0000
  P   P3        1.0  0.75000  0.55155  0.40877  1.0000
  P   P4        1.0  0.75000  0.05671  0.38477  1.0000
  P   P5        1.0  0.25000  0.30283  0.23494  1.0000
  P   P6        1.0  0.75000  0.69717  0.76506  1.0000
