data_image0
_chemical_formula_structural       Ga3P3
_chemical_formula_sum              "Ga3 P3"
_cell_length_a       6.52849
_cell_length_b       6.52849
_cell_length_c       8.3861
_cell_angle_alpha    73.638
_cell_angle_beta     73.638
_cell_angle_gamma    32.4526

_space_group_name_H-M_alt    "P 1"
_space_group_IT_number       1

loop_
  _space_group_symop_operation_xyz
  'x, y, z'

loop_
  _atom_site_type_symbol
  _atom_site_label
  _atom_site_symmetry_multiplicity
  _atom_site_fract_x
  _atom_site_fract_y
  _atom_site_fract_z
  _atom_site_occupancy
  Ga  Ga1       1.0  0.61643  0.61643  0.24799  1.0000
  Ga  Ga2       1.0  0.32122  0.32122  0.35175  1.0000
  Ga  Ga3       1.0  0.95774  0.95774  0.60273  1.0000
  P   P1        1.0  0.99300  0.99300  0.99364  1.0000
  P   P2        1.0  0.66492  0.66492  0.70945  1.0000
  P   P3        1.0  0.28002  0.28002  0.92777  1.0000
