data_image0
_chemical_formula_structural       Ga2P2
_chemical_formula_sum              "Ga2 P2"
_cell_length_a       3.73513
_cell_length_b       4.55503
_cell_length_c       5.5757
_cell_angle_alpha    90
_cell_angle_beta     109.569
_cell_angle_gamma    90

_space_group_name_H-M_alt    "P 1"
_space_group_IT_number       1

loop_
  _space_group_symop_operation_xyz
  'x, y, z'

loop_
  _atom_site_type_symbol
  _atom_site_label
  _atom_site_symmetry_multiplicity
  _atom_site_fract_x
  _atom_site_fract_y
  _atom_site_fract_z
  _atom_site_occupancy
  Ga  Ga1       1.0  0.86303  0.75000  0.72605  1.0000
  Ga  Ga2       1.0  0.13697  0.25000  0.27395  1.0000
  P   P1        1.0  0.58517  0.75000  0.17033  1.0000
  P   P2        1.0  0.41483  0.25000  0.82967  1.0000
