data_image0
_chemical_formula_structural       Ga3P3
_chemical_formula_sum              "Ga3 P3"
_cell_length_a       3.74731
_cell_length_b       3.74731
_cell_length_c       8.89903
_cell_angle_alpha    90
_cell_angle_beta     90
_cell_angle_gamma    120

_space_group_name_H-M_alt    "P 1"
_space_group_IT_number       1

loop_
  _space_group_symop_operation_xyz
  'x, y, z'

loop_
  _atom_site_type_symbol
  _atom_site_label
  _atom_site_symmetry_multiplicity
  _atom_site_fract_x
  _atom_site_fract_y
  _atom_site_fract_z
  _atom_site_occupancy
  Ga  Ga1       1.0  0.44493  0.44493  0.50000  1.0000
  Ga  Ga2       1.0  0.55507  0.00000  0.16667  1.0000
  Ga  Ga3       1.0  0.00000  0.55507  0.83333  1.0000
  P   P1        1.0  0.76533  0.76533  0.00000  1.0000
  P   P2        1.0  0.23467  0.00000  0.66667  1.0000
  P   P3        1.0  0.00000  0.23467  0.33333  1.0000
