data_image0
_chemical_formula_structural       Ga4P4
_chemical_formula_sum              "Ga4 P4"
_cell_length_a       4.04645
_cell_length_b       6.12276
_cell_length_c       8.91175
_cell_angle_alpha    90
_cell_angle_beta     90
_cell_angle_gamma    90

_space_group_name_H-M_alt    "P 1"
_space_group_IT_number       1

loop_
  _space_group_symop_operation_xyz
  'x, y, z'

loop_
  _atom_site_type_symbol
  _atom_site_label
  _atom_site_symmetry_multiplicity
  _atom_site_fract_x
  _atom_site_fract_y
  _atom_site_fract_z
  _atom_site_occupancy
  Ga  Ga1       1.0  0.25000  0.39158  0.68061  1.0000
  Ga  Ga2       1.0  0.75000  0.60842  0.31939  1.0000
  Ga  Ga3       1.0  0.75000  0.89158  0.81939  1.0000
  Ga  Ga4       1.0  0.25000  0.10842  0.18061  1.0000
  P   P1        1.0  0.25000  0.89347  0.53283  1.0000
  P   P2        1.0  0.75000  0.10653  0.46717  1.0000
  P   P3        1.0  0.75000  0.39347  0.96717  1.0000
  P   P4        1.0  0.25000  0.60653  0.03283  1.0000
