data_image0
_chemical_formula_structural       Ga4P4
_chemical_formula_sum              "Ga4 P4"
_cell_length_a       2.98128
_cell_length_b       4.97369
_cell_length_c       5.09672
_cell_angle_alpha    97.6738
_cell_angle_beta     107.003
_cell_angle_gamma    89.9998

_space_group_name_H-M_alt    "P 1"
_space_group_IT_number       1

loop_
  _space_group_symop_operation_xyz
  'x, y, z'

loop_
  _atom_site_type_symbol
  _atom_site_label
  _atom_site_symmetry_multiplicity
  _atom_site_fract_x
  _atom_site_fract_y
  _atom_site_fract_z
  _atom_site_occupancy
  Ga  Ga1       1.0  0.74876  0.26168  0.49762  1.0000
  Ga  Ga2       1.0  0.00123  0.98832  0.00236  1.0000
  Ga  Ga3       1.0  0.50124  0.48838  0.00238  1.0000
  Ga  Ga4       1.0  0.24876  0.76163  0.49761  1.0000
  P   P1        1.0  0.37500  0.12500  0.75001  1.0000
  P   P2        1.0  0.12502  0.37497  0.25004  1.0000
  P   P3        1.0  0.87500  0.62499  0.74999  1.0000
  P   P4        1.0  0.62499  0.87502  0.24998  1.0000
