data_image0
_chemical_formula_structural       Ga4P4
_chemical_formula_sum              "Ga4 P4"
_cell_length_a       8.49922
_cell_length_b       4.24785
_cell_length_c       7.24147
_cell_angle_alpha    89.9959
_cell_angle_beta     90.0041
_cell_angle_gamma    119.986

_space_group_name_H-M_alt    "P 1"
_space_group_IT_number       1

loop_
  _space_group_symop_operation_xyz
  'x, y, z'

loop_
  _atom_site_type_symbol
  _atom_site_label
  _atom_site_symmetry_multiplicity
  _atom_site_fract_x
  _atom_site_fract_y
  _atom_site_fract_z
  _atom_site_occupancy
  Ga  Ga1       1.0  0.00000  0.99998  0.49998  1.0000
  Ga  Ga2       1.0  0.00000  0.99999  0.99998  1.0000
  Ga  Ga3       1.0  0.50001  0.99998  0.49998  1.0000
  Ga  Ga4       1.0  0.50001  0.99999  0.99998  1.0000
  P   P1        1.0  0.33297  0.33304  0.75007  1.0000
  P   P2        1.0  0.16703  0.66700  0.24997  1.0000
  P   P3        1.0  0.83296  0.33304  0.75007  1.0000
  P   P4        1.0  0.66702  0.66700  0.24997  1.0000
