data_image0
_chemical_formula_structural       Ga3P3
_chemical_formula_sum              "Ga3 P3"
_cell_length_a       6.68813
_cell_length_b       6.68813
_cell_length_c       7.84332
_cell_angle_alpha    75.4806
_cell_angle_beta     75.4806
_cell_angle_gamma    30.3201

_space_group_name_H-M_alt    "P 1"
_space_group_IT_number       1

loop_
  _space_group_symop_operation_xyz
  'x, y, z'

loop_
  _atom_site_type_symbol
  _atom_site_label
  _atom_site_symmetry_multiplicity
  _atom_site_fract_x
  _atom_site_fract_y
  _atom_site_fract_z
  _atom_site_occupancy
  Ga  Ga1       1.0  0.60979  0.60979  0.28076  1.0000
  Ga  Ga2       1.0  0.33621  0.33621  0.33557  1.0000
  Ga  Ga3       1.0  0.94240  0.94240  0.60489  1.0000
  P   P1        1.0  0.99793  0.99793  0.00899  1.0000
  P   P2        1.0  0.66781  0.66781  0.65820  1.0000
  P   P3        1.0  0.27919  0.27919  0.94493  1.0000
