data_image0
_chemical_formula_structural       Ga6P6
_chemical_formula_sum              "Ga6 P6"
_cell_length_a       5.04583
_cell_length_b       5.05104
_cell_length_c       9.26022
_cell_angle_alpha    97.5714
_cell_angle_beta     94.3458
_cell_angle_gamma    104.74

_space_group_name_H-M_alt    "P 1"
_space_group_IT_number       1

loop_
  _space_group_symop_operation_xyz
  'x, y, z'

loop_
  _atom_site_type_symbol
  _atom_site_label
  _atom_site_symmetry_multiplicity
  _atom_site_fract_x
  _atom_site_fract_y
  _atom_site_fract_z
  _atom_site_occupancy
  Ga  Ga1       1.0  0.79041  0.17869  0.04822  1.0000
  Ga  Ga2       1.0  0.61734  0.98886  0.70765  1.0000
  Ga  Ga3       1.0  0.00776  0.61812  0.60676  1.0000
  Ga  Ga4       1.0  0.69456  0.08797  0.37238  1.0000
  Ga  Ga5       1.0  0.23672  0.32923  0.83860  1.0000
  Ga  Ga6       1.0  0.07017  0.72051  0.28007  1.0000
  P   P1        1.0  0.29236  0.27226  0.20337  1.0000
  P   P2        1.0  0.80323  0.59005  0.87917  1.0000
  P   P3        1.0  0.25765  0.87380  0.95996  1.0000
  P   P4        1.0  0.56068  0.65729  0.10218  1.0000
  P   P5        1.0  0.48474  0.53270  0.45513  1.0000
  P   P6        1.0  0.18456  0.15040  0.54659  1.0000
