data_image0
_chemical_formula_structural       Ga4P4
_chemical_formula_sum              "Ga4 P4"
_cell_length_a       4.8936
_cell_length_b       7.65052
_cell_length_c       5.88454
_cell_angle_alpha    90
_cell_angle_beta     90
_cell_angle_gamma    90

_space_group_name_H-M_alt    "P 1"
_space_group_IT_number       1

loop_
  _space_group_symop_operation_xyz
  'x, y, z'

loop_
  _atom_site_type_symbol
  _atom_site_label
  _atom_site_symmetry_multiplicity
  _atom_site_fract_x
  _atom_site_fract_y
  _atom_site_fract_z
  _atom_site_occupancy
  Ga  Ga1       1.0  0.75000  0.81217  0.35299  1.0000
  Ga  Ga2       1.0  0.25000  0.18783  0.64701  1.0000
  Ga  Ga3       1.0  0.25000  0.68783  0.85299  1.0000
  Ga  Ga4       1.0  0.75000  0.31217  0.14701  1.0000
  P   P1        1.0  0.75000  0.96007  0.84869  1.0000
  P   P2        1.0  0.25000  0.03993  0.15131  1.0000
  P   P3        1.0  0.25000  0.53993  0.34869  1.0000
  P   P4        1.0  0.75000  0.46007  0.65131  1.0000
