data_image0
_chemical_formula_structural       Ga3P3
_chemical_formula_sum              "Ga3 P3"
_cell_length_a       5.31517
_cell_length_b       5.31517
_cell_length_c       5.69784
_cell_angle_alpha    61.4526
_cell_angle_beta     61.4526
_cell_angle_gamma    54.7571

_space_group_name_H-M_alt    "P 1"
_space_group_IT_number       1

loop_
  _space_group_symop_operation_xyz
  'x, y, z'

loop_
  _atom_site_type_symbol
  _atom_site_label
  _atom_site_symmetry_multiplicity
  _atom_site_fract_x
  _atom_site_fract_y
  _atom_site_fract_z
  _atom_site_occupancy
  Ga  Ga1       1.0  0.34380  0.65620  0.00000  1.0000
  Ga  Ga2       1.0  0.80629  0.81867  0.50614  1.0000
  Ga  Ga3       1.0  0.18133  0.19371  0.49386  1.0000
  P   P1        1.0  0.00558  0.30080  0.01579  1.0000
  P   P2        1.0  0.69920  0.99442  0.98421  1.0000
  P   P3        1.0  0.46380  0.53620  0.50000  1.0000
