data_image0
_chemical_formula_structural       Ga4P4
_chemical_formula_sum              "Ga4 P4"
_cell_length_a       5.31522
_cell_length_b       2.85208
_cell_length_c       9.71572
_cell_angle_alpha    90
_cell_angle_beta     88.7532
_cell_angle_gamma    90

_space_group_name_H-M_alt    "P 1"
_space_group_IT_number       1

loop_
  _space_group_symop_operation_xyz
  'x, y, z'

loop_
  _atom_site_type_symbol
  _atom_site_label
  _atom_site_symmetry_multiplicity
  _atom_site_fract_x
  _atom_site_fract_y
  _atom_site_fract_z
  _atom_site_occupancy
  Ga  Ga1       1.0  0.11260  0.47130  0.37940  1.0000
  Ga  Ga2       1.0  0.88740  0.97130  0.12060  1.0000
  Ga  Ga3       1.0  0.88740  0.52870  0.62060  1.0000
  Ga  Ga4       1.0  0.11260  0.02870  0.87940  1.0000
  P   P1        1.0  0.57806  0.25426  0.87332  1.0000
  P   P2        1.0  0.42194  0.75426  0.62668  1.0000
  P   P3        1.0  0.42194  0.74574  0.12668  1.0000
  P   P4        1.0  0.57806  0.24574  0.37332  1.0000
