data_image0
_chemical_formula_structural       Ga4P4
_chemical_formula_sum              "Ga4 P4"
_cell_length_a       4.59947
_cell_length_b       5.70386
_cell_length_c       7.3435
_cell_angle_alpha    90
_cell_angle_beta     90
_cell_angle_gamma    90

_space_group_name_H-M_alt    "P 1"
_space_group_IT_number       1

loop_
  _space_group_symop_operation_xyz
  'x, y, z'

loop_
  _atom_site_type_symbol
  _atom_site_label
  _atom_site_symmetry_multiplicity
  _atom_site_fract_x
  _atom_site_fract_y
  _atom_site_fract_z
  _atom_site_occupancy
  Ga  Ga1       1.0  0.25000  0.84729  0.54413  1.0000
  Ga  Ga2       1.0  0.25000  0.65271  0.04413  1.0000
  Ga  Ga3       1.0  0.75000  0.15271  0.45587  1.0000
  Ga  Ga4       1.0  0.75000  0.34729  0.95587  1.0000
  P   P1        1.0  0.25000  0.36166  0.68300  1.0000
  P   P2        1.0  0.25000  0.13834  0.18300  1.0000
  P   P3        1.0  0.75000  0.63834  0.31700  1.0000
  P   P4        1.0  0.75000  0.86166  0.81700  1.0000
