data_image0
_chemical_formula_structural       GaP
_chemical_formula_sum              "Ga1 P1"
_cell_length_a       3.04209
_cell_length_b       3.04212
_cell_length_c       2.70297
_cell_angle_alpha    89.9997
_cell_angle_beta     90.0003
_cell_angle_gamma    119.997

_space_group_name_H-M_alt    "P 1"
_space_group_IT_number       1

loop_
  _space_group_symop_operation_xyz
  'x, y, z'

loop_
  _atom_site_type_symbol
  _atom_site_label
  _atom_site_symmetry_multiplicity
  _atom_site_fract_x
  _atom_site_fract_y
  _atom_site_fract_z
  _atom_site_occupancy
  Ga  Ga1       1.0  0.66667  0.33333  0.75000  1.0000
  P   P1        1.0  0.33333  0.66667  0.25000  1.0000
