data_image0
_chemical_formula_structural       Ga4P4
_chemical_formula_sum              "Ga4 P4"
_cell_length_a       2.91755
_cell_length_b       2.91749
_cell_length_c       7.93961
_cell_angle_alpha    100.589
_cell_angle_beta     100.59
_cell_angle_gamma    90.0036

_space_group_name_H-M_alt    "P 1"
_space_group_IT_number       1

loop_
  _space_group_symop_operation_xyz
  'x, y, z'

loop_
  _atom_site_type_symbol
  _atom_site_label
  _atom_site_symmetry_multiplicity
  _atom_site_fract_x
  _atom_site_fract_y
  _atom_site_fract_z
  _atom_site_occupancy
  Ga  Ga1       1.0  0.67611  0.92586  0.35264  1.0000
  Ga  Ga2       1.0  0.92588  0.67614  0.85269  1.0000
  Ga  Ga3       1.0  0.32393  0.07418  0.64745  1.0000
  Ga  Ga4       1.0  0.07407  0.32381  0.14722  1.0000
  P   P1        1.0  0.21722  0.46724  0.43451  1.0000
  P   P2        1.0  0.46726  0.21724  0.93454  1.0000
  P   P3        1.0  0.78277  0.53275  0.56548  1.0000
  P   P4        1.0  0.53276  0.78278  0.06548  1.0000
