data_image0
_chemical_formula_structural       Ga4P4
_chemical_formula_sum              "Ga4 P4"
_cell_length_a       7.59246
_cell_length_b       4.43501
_cell_length_c       4.61982
_cell_angle_alpha    99.9968
_cell_angle_beta     93.1664
_cell_angle_gamma    91.0809

_space_group_name_H-M_alt    "P 1"
_space_group_IT_number       1

loop_
  _space_group_symop_operation_xyz
  'x, y, z'

loop_
  _atom_site_type_symbol
  _atom_site_label
  _atom_site_symmetry_multiplicity
  _atom_site_fract_x
  _atom_site_fract_y
  _atom_site_fract_z
  _atom_site_occupancy
  Ga  Ga1       1.0  0.23436  0.18582  0.35177  1.0000
  Ga  Ga2       1.0  0.26564  0.81418  0.64823  1.0000
  Ga  Ga3       1.0  0.73436  0.18582  0.35177  1.0000
  Ga  Ga4       1.0  0.76564  0.81418  0.64823  1.0000
  P   P1        1.0  0.18393  0.81328  0.31033  1.0000
  P   P2        1.0  0.31606  0.18672  0.68967  1.0000
  P   P3        1.0  0.68393  0.81328  0.31033  1.0000
  P   P4        1.0  0.81606  0.18672  0.68967  1.0000
