data_image0
_chemical_formula_structural       Ga3P3
_chemical_formula_sum              "Ga3 P3"
_cell_length_a       6.50104
_cell_length_b       6.50104
_cell_length_c       6.91955
_cell_angle_alpha    67.2779
_cell_angle_beta     67.2779
_cell_angle_gamma    59.5018

_space_group_name_H-M_alt    "P 1"
_space_group_IT_number       1

loop_
  _space_group_symop_operation_xyz
  'x, y, z'

loop_
  _atom_site_type_symbol
  _atom_site_label
  _atom_site_symmetry_multiplicity
  _atom_site_fract_x
  _atom_site_fract_y
  _atom_site_fract_z
  _atom_site_occupancy
  Ga  Ga1       1.0  0.36061  0.63939  0.00000  1.0000
  Ga  Ga2       1.0  0.82971  0.84929  0.48926  1.0000
  Ga  Ga3       1.0  0.15071  0.17029  0.51074  1.0000
  P   P1        1.0  0.99792  0.33992  0.00465  1.0000
  P   P2        1.0  0.66007  0.00208  0.99535  1.0000
  P   P3        1.0  0.50097  0.49903  0.50000  1.0000
