data_image0
_chemical_formula_structural       Ga6P6
_chemical_formula_sum              "Ga6 P6"
_cell_length_a       8.74481
_cell_length_b       8.74481
_cell_length_c       8.74481
_cell_angle_alpha    107.853
_cell_angle_beta     107.853
_cell_angle_gamma    107.853

_space_group_name_H-M_alt    "P 1"
_space_group_IT_number       1

loop_
  _space_group_symop_operation_xyz
  'x, y, z'

loop_
  _atom_site_type_symbol
  _atom_site_label
  _atom_site_symmetry_multiplicity
  _atom_site_fract_x
  _atom_site_fract_y
  _atom_site_fract_z
  _atom_site_occupancy
  Ga  Ga1       1.0  0.31820  0.80994  0.95914  1.0000
  Ga  Ga2       1.0  0.95914  0.31820  0.80994  1.0000
  Ga  Ga3       1.0  0.80994  0.95914  0.31820  1.0000
  Ga  Ga4       1.0  0.68180  0.19006  0.04086  1.0000
  Ga  Ga5       1.0  0.04086  0.68180  0.19006  1.0000
  Ga  Ga6       1.0  0.19006  0.04086  0.68180  1.0000
  P   P1        1.0  0.60099  0.54877  0.84881  1.0000
  P   P2        1.0  0.84881  0.60099  0.54877  1.0000
  P   P3        1.0  0.54877  0.84881  0.60099  1.0000
  P   P4        1.0  0.39901  0.45123  0.15119  1.0000
  P   P5        1.0  0.15119  0.39901  0.45123  1.0000
  P   P6        1.0  0.45123  0.15119  0.39901  1.0000
