data_image0
_chemical_formula_structural       Ga4P4
_chemical_formula_sum              "Ga4 P4"
_cell_length_a       2.90047
_cell_length_b       2.90049
_cell_length_c       8.06684
_cell_angle_alpha    100.362
_cell_angle_beta     100.362
_cell_angle_gamma    89.9959

_space_group_name_H-M_alt    "P 1"
_space_group_IT_number       1

loop_
  _space_group_symop_operation_xyz
  'x, y, z'

loop_
  _atom_site_type_symbol
  _atom_site_label
  _atom_site_symmetry_multiplicity
  _atom_site_fract_x
  _atom_site_fract_y
  _atom_site_fract_z
  _atom_site_occupancy
  Ga  Ga1       1.0  0.57261  0.82260  0.14518  1.0000
  Ga  Ga2       1.0  0.82260  0.57261  0.64519  1.0000
  Ga  Ga3       1.0  0.42742  0.17744  0.85488  1.0000
  Ga  Ga4       1.0  0.17734  0.42733  0.35471  1.0000
  P   P1        1.0  0.71728  0.96725  0.43459  1.0000
  P   P2        1.0  0.96728  0.71730  0.93463  1.0000
  P   P3        1.0  0.28272  0.03274  0.56540  1.0000
  P   P4        1.0  0.03276  0.28273  0.06542  1.0000
