data_image0
_chemical_formula_structural       Ga4P4
_chemical_formula_sum              "Ga4 P4"
_cell_length_a       3.51332
_cell_length_b       9.30274
_cell_length_c       5.91725
_cell_angle_alpha    92.187
_cell_angle_beta     72.7302
_cell_angle_gamma    90

_space_group_name_H-M_alt    "P 1"
_space_group_IT_number       1

loop_
  _space_group_symop_operation_xyz
  'x, y, z'

loop_
  _atom_site_type_symbol
  _atom_site_label
  _atom_site_symmetry_multiplicity
  _atom_site_fract_x
  _atom_site_fract_y
  _atom_site_fract_z
  _atom_site_occupancy
  Ga  Ga1       1.0  0.39434  0.20884  0.21131  1.0000
  Ga  Ga2       1.0  0.60566  0.29116  0.78869  1.0000
  Ga  Ga3       1.0  0.39434  0.70884  0.21131  1.0000
  Ga  Ga4       1.0  0.60566  0.79116  0.78869  1.0000
  P   P1        1.0  0.09470  0.46357  0.81060  1.0000
  P   P2        1.0  0.90530  0.03644  0.18940  1.0000
  P   P3        1.0  0.09470  0.96357  0.81060  1.0000
  P   P4        1.0  0.90530  0.53643  0.18940  1.0000
