data_image0
_chemical_formula_structural       Ga4P4
_chemical_formula_sum              "Ga4 P4"
_cell_length_a       6.61334
_cell_length_b       6.33935
_cell_length_c       5.88086
_cell_angle_alpha    65.4026
_cell_angle_beta     60.6432
_cell_angle_gamma    53.9542

_space_group_name_H-M_alt    "P 1"
_space_group_IT_number       1

loop_
  _space_group_symop_operation_xyz
  'x, y, z'

loop_
  _atom_site_type_symbol
  _atom_site_label
  _atom_site_symmetry_multiplicity
  _atom_site_fract_x
  _atom_site_fract_y
  _atom_site_fract_z
  _atom_site_occupancy
  Ga  Ga1       1.0  0.56871  0.43128  0.56871  1.0000
  Ga  Ga2       1.0  0.43128  0.56871  0.43129  1.0000
  Ga  Ga3       1.0  0.68129  0.81871  0.68129  1.0000
  Ga  Ga4       1.0  0.81871  0.68128  0.81871  1.0000
  P   P1        1.0  0.24863  0.24863  0.75137  1.0000
  P   P2        1.0  0.75137  0.75137  0.24863  1.0000
  P   P3        1.0  0.00137  0.00137  0.49863  1.0000
  P   P4        1.0  0.49863  0.49863  0.00137  1.0000
