data_image0
_chemical_formula_structural       Ga3P3
_chemical_formula_sum              "Ga3 P3"
_cell_length_a       5.80762
_cell_length_b       5.80762
_cell_length_c       7.52747
_cell_angle_alpha    74.7686
_cell_angle_beta     74.7686
_cell_angle_gamma    31.4456

_space_group_name_H-M_alt    "P 1"
_space_group_IT_number       1

loop_
  _space_group_symop_operation_xyz
  'x, y, z'

loop_
  _atom_site_type_symbol
  _atom_site_label
  _atom_site_symmetry_multiplicity
  _atom_site_fract_x
  _atom_site_fract_y
  _atom_site_fract_z
  _atom_site_occupancy
  Ga  Ga1       1.0  0.66189  0.66189  0.66500  1.0000
  Ga  Ga2       1.0  0.05021  0.05021  0.38483  1.0000
  Ga  Ga3       1.0  0.73117  0.73117  0.05957  1.0000
  P   P1        1.0  0.01079  0.01079  0.99460  1.0000
  P   P2        1.0  0.38251  0.38251  0.72555  1.0000
  P   P3        1.0  0.33011  0.33011  0.33712  1.0000
