data_image0
_chemical_formula_structural       Ga5P5
_chemical_formula_sum              "Ga5 P5"
_cell_length_a       5.79418
_cell_length_b       5.71687
_cell_length_c       7.41591
_cell_angle_alpha    89.2819
_cell_angle_beta     90
_cell_angle_gamma    59.5516

_space_group_name_H-M_alt    "P 1"
_space_group_IT_number       1

loop_
  _space_group_symop_operation_xyz
  'x, y, z'

loop_
  _atom_site_type_symbol
  _atom_site_label
  _atom_site_symmetry_multiplicity
  _atom_site_fract_x
  _atom_site_fract_y
  _atom_site_fract_z
  _atom_site_occupancy
  Ga  Ga1       1.0  0.66262  0.67476  0.87293  1.0000
  Ga  Ga2       1.0  0.33738  0.32524  0.12707  1.0000
  Ga  Ga3       1.0  0.84024  0.31952  0.42790  1.0000
  Ga  Ga4       1.0  0.15976  0.68048  0.57210  1.0000
  Ga  Ga5       1.0  0.00000  0.00000  0.00000  1.0000
  P   P1        1.0  0.50000  0.00000  0.50000  1.0000
  P   P2        1.0  0.60857  0.20131  0.73938  1.0000
  P   P3        1.0  0.80988  0.79870  0.26062  1.0000
  P   P4        1.0  0.39142  0.79870  0.26062  1.0000
  P   P5        1.0  0.19012  0.20131  0.73938  1.0000
