data_image0
_chemical_formula_structural       Ga3P3
_chemical_formula_sum              "Ga3 P3"
_cell_length_a       9.43891
_cell_length_b       9.43891
_cell_length_c       6.01833
_cell_angle_alpha    90
_cell_angle_beta     90
_cell_angle_gamma    154.443

_space_group_name_H-M_alt    "P 1"
_space_group_IT_number       1

loop_
  _space_group_symop_operation_xyz
  'x, y, z'

loop_
  _atom_site_type_symbol
  _atom_site_label
  _atom_site_symmetry_multiplicity
  _atom_site_fract_x
  _atom_site_fract_y
  _atom_site_fract_z
  _atom_site_occupancy
  Ga  Ga1       1.0  0.99215  0.00785  0.00000  1.0000
  Ga  Ga2       1.0  0.67584  0.32416  0.00000  1.0000
  Ga  Ga3       1.0  0.43801  0.56199  0.50000  1.0000
  P   P1        1.0  0.33274  0.66726  0.00000  1.0000
  P   P2        1.0  0.11696  0.88304  0.50000  1.0000
  P   P3        1.0  0.77764  0.22236  0.50000  1.0000
