data_image0
_chemical_formula_structural       Ga4P4
_chemical_formula_sum              "Ga4 P4"
_cell_length_a       2.9049
_cell_length_b       2.92077
_cell_length_c       8.1211
_cell_angle_alpha    90
_cell_angle_beta     69.0411
_cell_angle_gamma    90

_space_group_name_H-M_alt    "P 1"
_space_group_IT_number       1

loop_
  _space_group_symop_operation_xyz
  'x, y, z'

loop_
  _atom_site_type_symbol
  _atom_site_label
  _atom_site_symmetry_multiplicity
  _atom_site_fract_x
  _atom_site_fract_y
  _atom_site_fract_z
  _atom_site_occupancy
  Ga  Ga1       1.0  0.14577  0.75000  0.35423  1.0000
  Ga  Ga2       1.0  0.85423  0.25000  0.14577  1.0000
  Ga  Ga3       1.0  0.14577  0.75000  0.85423  1.0000
  Ga  Ga4       1.0  0.85423  0.25000  0.64577  1.0000
  P   P1        1.0  0.43339  0.75000  0.06661  1.0000
  P   P2        1.0  0.56661  0.25000  0.43339  1.0000
  P   P3        1.0  0.43339  0.75000  0.56661  1.0000
  P   P4        1.0  0.56661  0.25000  0.93339  1.0000
