data_image0
_chemical_formula_structural       GaP
_chemical_formula_sum              "Ga1 P1"
_cell_length_a       3.94856
_cell_length_b       3.94856
_cell_length_c       3.94857
_cell_angle_alpha    55.6353
_cell_angle_beta     55.6353
_cell_angle_gamma    55.6353

_space_group_name_H-M_alt    "P 1"
_space_group_IT_number       1

loop_
  _space_group_symop_operation_xyz
  'x, y, z'

loop_
  _atom_site_type_symbol
  _atom_site_label
  _atom_site_symmetry_multiplicity
  _atom_site_fract_x
  _atom_site_fract_y
  _atom_site_fract_z
  _atom_site_occupancy
  Ga  Ga1       1.0  0.77252  0.77252  0.77252  1.0000
  P   P1        1.0  0.22748  0.22748  0.22748  1.0000
