data_image0
_chemical_formula_structural       Ga4P4
_chemical_formula_sum              "Ga4 P4"
_cell_length_a       8.22776
_cell_length_b       4.11657
_cell_length_c       7.55994
_cell_angle_alpha    90
_cell_angle_beta     90
_cell_angle_gamma    119.978

_space_group_name_H-M_alt    "P 1"
_space_group_IT_number       1

loop_
  _space_group_symop_operation_xyz
  'x, y, z'

loop_
  _atom_site_type_symbol
  _atom_site_label
  _atom_site_symmetry_multiplicity
  _atom_site_fract_x
  _atom_site_fract_y
  _atom_site_fract_z
  _atom_site_occupancy
  Ga  Ga1       1.0  0.16642  0.66571  0.69247  1.0000
  Ga  Ga2       1.0  0.33358  0.33429  0.19247  1.0000
  Ga  Ga3       1.0  0.66642  0.66571  0.69247  1.0000
  Ga  Ga4       1.0  0.83358  0.33429  0.19247  1.0000
  P   P1        1.0  0.49949  0.99794  0.48673  1.0000
  P   P2        1.0  0.00052  0.00206  0.98673  1.0000
  P   P3        1.0  0.99949  0.99794  0.48673  1.0000
  P   P4        1.0  0.50051  0.00206  0.98673  1.0000
