data_image0
_chemical_formula_structural       Ga4P4
_chemical_formula_sum              "Ga4 P4"
_cell_length_a       5.79744
_cell_length_b       3.98704
_cell_length_c       4.89508
_cell_angle_alpha    90
_cell_angle_beta     107.01
_cell_angle_gamma    90

_space_group_name_H-M_alt    "P 1"
_space_group_IT_number       1

loop_
  _space_group_symop_operation_xyz
  'x, y, z'

loop_
  _atom_site_type_symbol
  _atom_site_label
  _atom_site_symmetry_multiplicity
  _atom_site_fract_x
  _atom_site_fract_y
  _atom_site_fract_z
  _atom_site_occupancy
  Ga  Ga1       1.0  0.04232  0.25000  0.17072  1.0000
  Ga  Ga2       1.0  0.45768  0.75000  0.82928  1.0000
  Ga  Ga3       1.0  0.54232  0.25000  0.17072  1.0000
  Ga  Ga4       1.0  0.95768  0.75000  0.82928  1.0000
  P   P1        1.0  0.17931  0.25000  0.71523  1.0000
  P   P2        1.0  0.32069  0.75000  0.28477  1.0000
  P   P3        1.0  0.67931  0.25000  0.71523  1.0000
  P   P4        1.0  0.82069  0.75000  0.28477  1.0000
