data_image0
_chemical_formula_structural       Ga8P8
_chemical_formula_sum              "Ga8 P8"
_cell_length_a       9.8321
_cell_length_b       9.8321
_cell_length_c       9.8321
_cell_angle_alpha    95.7477
_cell_angle_beta     95.7477
_cell_angle_gamma    143.102

_space_group_name_H-M_alt    "P 1"
_space_group_IT_number       1

loop_
  _space_group_symop_operation_xyz
  'x, y, z'

loop_
  _atom_site_type_symbol
  _atom_site_label
  _atom_site_symmetry_multiplicity
  _atom_site_fract_x
  _atom_site_fract_y
  _atom_site_fract_z
  _atom_site_occupancy
  Ga  Ga1       1.0  0.27598  0.41716  0.69313  1.0000
  Ga  Ga2       1.0  0.72403  0.58284  0.30687  1.0000
  Ga  Ga3       1.0  0.58284  0.27598  0.85882  1.0000
  Ga  Ga4       1.0  0.41716  0.72403  0.14118  1.0000
  Ga  Ga5       1.0  0.77598  0.08284  0.85882  1.0000
  Ga  Ga6       1.0  0.91716  0.77597  0.69313  1.0000
  Ga  Ga7       1.0  0.08284  0.22403  0.30687  1.0000
  Ga  Ga8       1.0  0.22402  0.91716  0.14118  1.0000
  P   P1        1.0  0.75000  0.75000  0.00000  1.0000
  P   P2        1.0  0.25000  0.25000  0.00000  1.0000
  P   P3        1.0  0.25000  0.75000  0.50000  1.0000
  P   P4        1.0  0.75000  0.25000  0.50000  1.0000
  P   P5        1.0  0.33798  0.16203  0.50000  1.0000
  P   P6        1.0  0.83798  0.33798  0.17595  1.0000
  P   P7        1.0  0.16203  0.66202  0.82405  1.0000
  P   P8        1.0  0.66203  0.83798  0.50000  1.0000
