data_image0
_chemical_formula_structural       Ga4P4
_chemical_formula_sum              "Ga4 P4"
_cell_length_a       4.04322
_cell_length_b       5.34197
_cell_length_c       6.96415
_cell_angle_alpha    90
_cell_angle_beta     90
_cell_angle_gamma    90

_space_group_name_H-M_alt    "P 1"
_space_group_IT_number       1

loop_
  _space_group_symop_operation_xyz
  'x, y, z'

loop_
  _atom_site_type_symbol
  _atom_site_label
  _atom_site_symmetry_multiplicity
  _atom_site_fract_x
  _atom_site_fract_y
  _atom_site_fract_z
  _atom_site_occupancy
  Ga  Ga1       1.0  0.25000  0.13231  0.18012  1.0000
  Ga  Ga2       1.0  0.75000  0.86769  0.81988  1.0000
  Ga  Ga3       1.0  0.75000  0.63231  0.31988  1.0000
  Ga  Ga4       1.0  0.25000  0.36769  0.68012  1.0000
  P   P1        1.0  0.25000  0.62399  0.03507  1.0000
  P   P2        1.0  0.75000  0.37601  0.96493  1.0000
  P   P3        1.0  0.75000  0.12399  0.46493  1.0000
  P   P4        1.0  0.25000  0.87601  0.53507  1.0000
