data_image0
_chemical_formula_structural       Ga2P2
_chemical_formula_sum              "Ga2 P2"
_cell_length_a       3.79623
_cell_length_b       4.43501
_cell_length_c       4.61982
_cell_angle_alpha    99.9968
_cell_angle_beta     93.1664
_cell_angle_gamma    91.0809

_space_group_name_H-M_alt    "P 1"
_space_group_IT_number       1

loop_
  _space_group_symop_operation_xyz
  'x, y, z'

loop_
  _atom_site_type_symbol
  _atom_site_label
  _atom_site_symmetry_multiplicity
  _atom_site_fract_x
  _atom_site_fract_y
  _atom_site_fract_z
  _atom_site_occupancy
  Ga  Ga1       1.0  0.36787  0.81328  0.31033  1.0000
  Ga  Ga2       1.0  0.63213  0.18672  0.68967  1.0000
  P   P1        1.0  0.46872  0.18582  0.35177  1.0000
  P   P2        1.0  0.53128  0.81418  0.64823  1.0000
