data_image0
_chemical_formula_structural       Ga4P4
_chemical_formula_sum              "Ga4 P4"
_cell_length_a       3.36171
_cell_length_b       5.84327
_cell_length_c       6.18831
_cell_angle_alpha    90
_cell_angle_beta     90
_cell_angle_gamma    90

_space_group_name_H-M_alt    "P 1"
_space_group_IT_number       1

loop_
  _space_group_symop_operation_xyz
  'x, y, z'

loop_
  _atom_site_type_symbol
  _atom_site_label
  _atom_site_symmetry_multiplicity
  _atom_site_fract_x
  _atom_site_fract_y
  _atom_site_fract_z
  _atom_site_occupancy
  Ga  Ga1       1.0  0.25865  0.00535  0.18110  1.0000
  Ga  Ga2       1.0  0.75865  0.99465  0.81890  1.0000
  Ga  Ga3       1.0  0.75865  0.49465  0.68110  1.0000
  Ga  Ga4       1.0  0.25865  0.50535  0.31890  1.0000
  P   P1        1.0  0.25865  0.19405  0.57704  1.0000
  P   P2        1.0  0.75865  0.80595  0.42296  1.0000
  P   P3        1.0  0.75865  0.30595  0.07704  1.0000
  P   P4        1.0  0.25865  0.69405  0.92296  1.0000
