data_image0
_chemical_formula_structural       Ga4P4
_chemical_formula_sum              "Ga4 P4"
_cell_length_a       2.70872
_cell_length_b       5.97898
_cell_length_c       4.8867
_cell_angle_alpha    83.4678
_cell_angle_beta     90
_cell_angle_gamma    90

_space_group_name_H-M_alt    "P 1"
_space_group_IT_number       1

loop_
  _space_group_symop_operation_xyz
  'x, y, z'

loop_
  _atom_site_type_symbol
  _atom_site_label
  _atom_site_symmetry_multiplicity
  _atom_site_fract_x
  _atom_site_fract_y
  _atom_site_fract_z
  _atom_site_occupancy
  Ga  Ga1       1.0  0.00000  0.40908  0.56394  1.0000
  Ga  Ga2       1.0  0.50000  0.19925  0.09008  1.0000
  Ga  Ga3       1.0  0.00000  0.90908  0.56394  1.0000
  Ga  Ga4       1.0  0.50000  0.69925  0.09008  1.0000
  P   P1        1.0  0.00000  0.46926  0.93763  1.0000
  P   P2        1.0  0.00000  0.17483  0.37902  1.0000
  P   P3        1.0  0.00000  0.96926  0.93763  1.0000
  P   P4        1.0  0.00000  0.67483  0.37902  1.0000
