data_image0
_chemical_formula_structural       Ga4P4
_chemical_formula_sum              "Ga4 P4"
_cell_length_a       8.05746
_cell_length_b       8.05746
_cell_length_c       3.99607
_cell_angle_alpha    90
_cell_angle_beta     90
_cell_angle_gamma    103.479

_space_group_name_H-M_alt    "P 1"
_space_group_IT_number       1

loop_
  _space_group_symop_operation_xyz
  'x, y, z'

loop_
  _atom_site_type_symbol
  _atom_site_label
  _atom_site_symmetry_multiplicity
  _atom_site_fract_x
  _atom_site_fract_y
  _atom_site_fract_z
  _atom_site_occupancy
  Ga  Ga1       1.0  0.40201  0.03944  0.50000  1.0000
  Ga  Ga2       1.0  0.96056  0.59799  0.50000  1.0000
  Ga  Ga3       1.0  0.63909  0.36091  0.00000  1.0000
  Ga  Ga4       1.0  0.42673  0.57327  0.50000  1.0000
  P   P1        1.0  0.30264  0.24688  0.00000  1.0000
  P   P2        1.0  0.75312  0.69736  0.00000  1.0000
  P   P3        1.0  0.77645  0.22355  0.50000  1.0000
  P   P4        1.0  0.26439  0.73561  0.00000  1.0000
