data_image0
_chemical_formula_structural       Ga4P4
_chemical_formula_sum              "Ga4 P4"
_cell_length_a       4.27309
_cell_length_b       4.40349
_cell_length_c       6.83745
_cell_angle_alpha    90
_cell_angle_beta     90
_cell_angle_gamma    90

_space_group_name_H-M_alt    "P 1"
_space_group_IT_number       1

loop_
  _space_group_symop_operation_xyz
  'x, y, z'

loop_
  _atom_site_type_symbol
  _atom_site_label
  _atom_site_symmetry_multiplicity
  _atom_site_fract_x
  _atom_site_fract_y
  _atom_site_fract_z
  _atom_site_occupancy
  Ga  Ga1       1.0  0.27099  0.03171  0.87825  1.0000
  Ga  Ga2       1.0  0.77099  0.46829  0.12175  1.0000
  Ga  Ga3       1.0  0.22901  0.96829  0.37825  1.0000
  Ga  Ga4       1.0  0.72901  0.53171  0.62175  1.0000
  P   P1        1.0  0.24368  0.28815  0.83938  1.0000
  P   P2        1.0  0.74368  0.21185  0.16062  1.0000
  P   P3        1.0  0.25632  0.71184  0.33938  1.0000
  P   P4        1.0  0.75632  0.78816  0.66062  1.0000
