data_image0
_chemical_formula_structural       Ga4P4
_chemical_formula_sum              "Ga4 P4"
_cell_length_a       4.8365
_cell_length_b       5.24216
_cell_length_c       6.21065
_cell_angle_alpha    90
_cell_angle_beta     90
_cell_angle_gamma    90

_space_group_name_H-M_alt    "P 1"
_space_group_IT_number       1

loop_
  _space_group_symop_operation_xyz
  'x, y, z'

loop_
  _atom_site_type_symbol
  _atom_site_label
  _atom_site_symmetry_multiplicity
  _atom_site_fract_x
  _atom_site_fract_y
  _atom_site_fract_z
  _atom_site_occupancy
  Ga  Ga1       1.0  0.00000  0.00590  0.00000  1.0000
  Ga  Ga2       1.0  0.50000  0.68558  0.00000  1.0000
  Ga  Ga3       1.0  0.50000  0.14605  0.21418  1.0000
  Ga  Ga4       1.0  0.50000  0.14605  0.78582  1.0000
  P   P1        1.0  0.00000  0.50191  0.23411  1.0000
  P   P2        1.0  0.00000  0.01981  0.50000  1.0000
  P   P3        1.0  0.00000  0.50191  0.76589  1.0000
  P   P4        1.0  0.50000  0.65944  0.50000  1.0000
