data_image0
_chemical_formula_structural       Ga3P3
_chemical_formula_sum              "Ga3 P3"
_cell_length_a       5.35394
_cell_length_b       5.35394
_cell_length_c       5.86613
_cell_angle_alpha    65.0353
_cell_angle_beta     65.0353
_cell_angle_gamma    59.7515

_space_group_name_H-M_alt    "P 1"
_space_group_IT_number       1

loop_
  _space_group_symop_operation_xyz
  'x, y, z'

loop_
  _atom_site_type_symbol
  _atom_site_label
  _atom_site_symmetry_multiplicity
  _atom_site_fract_x
  _atom_site_fract_y
  _atom_site_fract_z
  _atom_site_occupancy
  Ga  Ga1       1.0  0.66989  0.99596  0.00258  1.0000
  Ga  Ga2       1.0  0.00404  0.33011  0.99742  1.0000
  Ga  Ga3       1.0  0.49241  0.50759  0.50000  1.0000
  P   P1        1.0  0.34055  0.65945  0.00000  1.0000
  P   P2        1.0  0.16184  0.16872  0.50519  1.0000
  P   P3        1.0  0.83128  0.83816  0.49481  1.0000
