data_image0
_chemical_formula_structural       Ga4P4
_chemical_formula_sum              "Ga4 P4"
_cell_length_a       4.06453
_cell_length_b       8.66552
_cell_length_c       5.84146
_cell_angle_alpha    111.769
_cell_angle_beta     90
_cell_angle_gamma    90

_space_group_name_H-M_alt    "P 1"
_space_group_IT_number       1

loop_
  _space_group_symop_operation_xyz
  'x, y, z'

loop_
  _atom_site_type_symbol
  _atom_site_label
  _atom_site_symmetry_multiplicity
  _atom_site_fract_x
  _atom_site_fract_y
  _atom_site_fract_z
  _atom_site_occupancy
  Ga  Ga1       1.0  0.75000  0.21288  0.85152  1.0000
  Ga  Ga2       1.0  0.25000  0.28712  0.14848  1.0000
  Ga  Ga3       1.0  0.75000  0.71288  0.85152  1.0000
  Ga  Ga4       1.0  0.25000  0.78712  0.14848  1.0000
  P   P1        1.0  0.75000  0.06953  0.27814  1.0000
  P   P2        1.0  0.25000  0.43046  0.72186  1.0000
  P   P3        1.0  0.75000  0.56954  0.27814  1.0000
  P   P4        1.0  0.25000  0.93046  0.72186  1.0000
