data_image0
_chemical_formula_structural       Ga2P2
_chemical_formula_sum              "Ga2 P2"
_cell_length_a       2.79989
_cell_length_b       4.17109
_cell_length_c       4.67098
_cell_angle_alpha    89.8905
_cell_angle_beta     95.5513
_cell_angle_gamma    89.982

_space_group_name_H-M_alt    "P 1"
_space_group_IT_number       1

loop_
  _space_group_symop_operation_xyz
  'x, y, z'

loop_
  _atom_site_type_symbol
  _atom_site_label
  _atom_site_symmetry_multiplicity
  _atom_site_fract_x
  _atom_site_fract_y
  _atom_site_fract_z
  _atom_site_occupancy
  Ga  Ga1       1.0  0.02096  0.75054  0.17805  1.0000
  Ga  Ga2       1.0  0.97904  0.24946  0.82195  1.0000
  P   P1        1.0  0.56461  0.25045  0.28832  1.0000
  P   P2        1.0  0.43539  0.74955  0.71168  1.0000
