data_image0
_chemical_formula_structural       Ga2P2
_chemical_formula_sum              "Ga2 P2"
_cell_length_a       3.74435
_cell_length_b       4.15457
_cell_length_c       5.53492
_cell_angle_alpha    112.043
_cell_angle_beta     90
_cell_angle_gamma    90

_space_group_name_H-M_alt    "P 1"
_space_group_IT_number       1

loop_
  _space_group_symop_operation_xyz
  'x, y, z'

loop_
  _atom_site_type_symbol
  _atom_site_label
  _atom_site_symmetry_multiplicity
  _atom_site_fract_x
  _atom_site_fract_y
  _atom_site_fract_z
  _atom_site_occupancy
  Ga  Ga1       1.0  0.25000  0.42160  0.84319  1.0000
  Ga  Ga2       1.0  0.75000  0.57840  0.15681  1.0000
  P   P1        1.0  0.25000  0.14071  0.28142  1.0000
  P   P2        1.0  0.75000  0.85929  0.71858  1.0000
