data_image0
_chemical_formula_structural       Ga2P2
_chemical_formula_sum              "Ga2 P2"
_cell_length_a       5.93506
_cell_length_b       5.93506
_cell_length_c       5.26674
_cell_angle_alpha    66.4451
_cell_angle_beta     66.4451
_cell_angle_gamma    30.2052

_space_group_name_H-M_alt    "P 1"
_space_group_IT_number       1

loop_
  _space_group_symop_operation_xyz
  'x, y, z'

loop_
  _atom_site_type_symbol
  _atom_site_label
  _atom_site_symmetry_multiplicity
  _atom_site_fract_x
  _atom_site_fract_y
  _atom_site_fract_z
  _atom_site_occupancy
  Ga  Ga1       1.0  0.87841  0.87841  0.79199  1.0000
  Ga  Ga2       1.0  0.12159  0.12159  0.20801  1.0000
  P   P1        1.0  0.62727  0.62727  0.70942  1.0000
  P   P2        1.0  0.37273  0.37273  0.29058  1.0000
