data_image0
_chemical_formula_structural       Ga4P4
_chemical_formula_sum              "Ga4 P4"
_cell_length_a       6.645
_cell_length_b       3.91013
_cell_length_c       5.99157
_cell_angle_alpha    91.3061
_cell_angle_beta     91.553
_cell_angle_gamma    90.217

_space_group_name_H-M_alt    "P 1"
_space_group_IT_number       1

loop_
  _space_group_symop_operation_xyz
  'x, y, z'

loop_
  _atom_site_type_symbol
  _atom_site_label
  _atom_site_symmetry_multiplicity
  _atom_site_fract_x
  _atom_site_fract_y
  _atom_site_fract_z
  _atom_site_occupancy
  Ga  Ga1       1.0  0.31056  0.97044  0.62520  1.0000
  Ga  Ga2       1.0  0.06649  0.48093  0.87219  1.0000
  Ga  Ga3       1.0  0.81056  0.97044  0.62520  1.0000
  Ga  Ga4       1.0  0.56649  0.48093  0.87219  1.0000
  P   P1        1.0  0.31918  0.79577  0.95561  1.0000
  P   P2        1.0  0.05912  0.27928  0.54170  1.0000
  P   P3        1.0  0.81919  0.79577  0.95561  1.0000
  P   P4        1.0  0.55912  0.27928  0.54170  1.0000
