data_image0
_chemical_formula_structural       Ga8P8
_chemical_formula_sum              "Ga8 P8"
_cell_length_a       6.06801
_cell_length_b       6.06801
_cell_length_c       5.10971
_cell_angle_alpha    82.9721
_cell_angle_beta     82.9721
_cell_angle_gamma    100.374

_space_group_name_H-M_alt    "P 1"
_space_group_IT_number       1

loop_
  _space_group_symop_operation_xyz
  'x, y, z'

loop_
  _atom_site_type_symbol
  _atom_site_label
  _atom_site_symmetry_multiplicity
  _atom_site_fract_x
  _atom_site_fract_y
  _atom_site_fract_z
  _atom_site_occupancy
  Ga  Ga1       1.0  0.31440  0.68560  0.50000  1.0000
  Ga  Ga2       1.0  0.68560  0.31440  0.50000  1.0000
  Ga  Ga3       1.0  0.20015  0.45780  0.04999  1.0000
  Ga  Ga4       1.0  0.54221  0.79985  0.95001  1.0000
  Ga  Ga5       1.0  0.13114  0.86886  0.00000  1.0000
  Ga  Ga6       1.0  0.45780  0.20015  0.04999  1.0000
  Ga  Ga7       1.0  0.86886  0.13114  0.00000  1.0000
  Ga  Ga8       1.0  0.79985  0.54221  0.95001  1.0000
  P   P1        1.0  0.87505  0.87505  0.76790  1.0000
  P   P2        1.0  0.12495  0.12495  0.23210  1.0000
  P   P3        1.0  0.39850  0.02530  0.72733  1.0000
  P   P4        1.0  0.02530  0.39850  0.72733  1.0000
  P   P5        1.0  0.51650  0.51650  0.74029  1.0000
  P   P6        1.0  0.60150  0.97470  0.27267  1.0000
  P   P7        1.0  0.97470  0.60150  0.27267  1.0000
  P   P8        1.0  0.48350  0.48350  0.25971  1.0000
