data_image0
_chemical_formula_structural       Ga8P8
_chemical_formula_sum              "Ga8 P8"
_cell_length_a       6.80214
_cell_length_b       6.80214
_cell_length_c       6.80214
_cell_angle_alpha    118.523
_cell_angle_beta     118.523
_cell_angle_gamma    92.5785

_space_group_name_H-M_alt    "P 1"
_space_group_IT_number       1

loop_
  _space_group_symop_operation_xyz
  'x, y, z'

loop_
  _atom_site_type_symbol
  _atom_site_label
  _atom_site_symmetry_multiplicity
  _atom_site_fract_x
  _atom_site_fract_y
  _atom_site_fract_z
  _atom_site_occupancy
  Ga  Ga1       1.0  0.67022  0.99840  0.84170  1.0000
  Ga  Ga2       1.0  0.74840  0.40669  0.82818  1.0000
  Ga  Ga3       1.0  0.57852  0.92022  0.17182  1.0000
  Ga  Ga4       1.0  0.15669  0.82852  0.15829  1.0000
  Ga  Ga5       1.0  0.07978  0.25160  0.65829  1.0000
  Ga  Ga6       1.0  0.00160  0.84331  0.67182  1.0000
  Ga  Ga7       1.0  0.17148  0.32978  0.32818  1.0000
  Ga  Ga8       1.0  0.59331  0.42148  0.34170  1.0000
  P   P1        1.0  0.37500  0.62500  0.75000  1.0000
  P   P2        1.0  0.37500  0.12500  0.75000  1.0000
  P   P3        1.0  0.37500  0.62500  0.25000  1.0000
  P   P4        1.0  0.87500  0.62500  0.25000  1.0000
  P   P5        1.0  0.87500  0.12500  0.75000  1.0000
  P   P6        1.0  0.87500  0.62500  0.75000  1.0000
  P   P7        1.0  0.87500  0.12500  0.25000  1.0000
  P   P8        1.0  0.37500  0.12500  0.25000  1.0000
