data_image0
_chemical_formula_structural       Ga4P4
_chemical_formula_sum              "Ga4 P4"
_cell_length_a       5.5328
_cell_length_b       5.5328
_cell_length_c       9.55144
_cell_angle_alpha    70.5244
_cell_angle_beta     70.5244
_cell_angle_gamma    31.091

_space_group_name_H-M_alt    "P 1"
_space_group_IT_number       1

loop_
  _space_group_symop_operation_xyz
  'x, y, z'

loop_
  _atom_site_type_symbol
  _atom_site_label
  _atom_site_symmetry_multiplicity
  _atom_site_fract_x
  _atom_site_fract_y
  _atom_site_fract_z
  _atom_site_occupancy
  Ga  Ga1       1.0  0.10579  0.10579  0.34297  1.0000
  Ga  Ga2       1.0  0.89421  0.89421  0.15702  1.0000
  Ga  Ga3       1.0  0.10579  0.10579  0.84297  1.0000
  Ga  Ga4       1.0  0.89421  0.89421  0.65702  1.0000
  P   P1        1.0  0.34752  0.34752  0.42081  1.0000
  P   P2        1.0  0.65248  0.65248  0.07919  1.0000
  P   P3        1.0  0.34752  0.34752  0.92082  1.0000
  P   P4        1.0  0.65248  0.65248  0.57918  1.0000
