data_image0
_chemical_formula_structural       Ga4P4
_chemical_formula_sum              "Ga4 P4"
_cell_length_a       4.56707
_cell_length_b       5.48929
_cell_length_c       7.42696
_cell_angle_alpha    90
_cell_angle_beta     90
_cell_angle_gamma    90

_space_group_name_H-M_alt    "P 1"
_space_group_IT_number       1

loop_
  _space_group_symop_operation_xyz
  'x, y, z'

loop_
  _atom_site_type_symbol
  _atom_site_label
  _atom_site_symmetry_multiplicity
  _atom_site_fract_x
  _atom_site_fract_y
  _atom_site_fract_z
  _atom_site_occupancy
  Ga  Ga1       1.0  0.25000  0.88967  0.53332  1.0000
  Ga  Ga2       1.0  0.75000  0.11033  0.46668  1.0000
  Ga  Ga3       1.0  0.75000  0.38967  0.96668  1.0000
  Ga  Ga4       1.0  0.25000  0.61033  0.03332  1.0000
  P   P1        1.0  0.25000  0.38486  0.67901  1.0000
  P   P2        1.0  0.75000  0.61514  0.32099  1.0000
  P   P3        1.0  0.75000  0.88486  0.82099  1.0000
  P   P4        1.0  0.25000  0.11514  0.17901  1.0000
