data_image0
_chemical_formula_structural       Ga2P2
_chemical_formula_sum              "Ga2 P2"
_cell_length_a       5.6952
_cell_length_b       5.6952
_cell_length_c       4.89946
_cell_angle_alpha    64.6918
_cell_angle_beta     64.6918
_cell_angle_gamma    34.4754

_space_group_name_H-M_alt    "P 1"
_space_group_IT_number       1

loop_
  _space_group_symop_operation_xyz
  'x, y, z'

loop_
  _atom_site_type_symbol
  _atom_site_label
  _atom_site_symmetry_multiplicity
  _atom_site_fract_x
  _atom_site_fract_y
  _atom_site_fract_z
  _atom_site_occupancy
  Ga  Ga1       1.0  0.63330  0.63330  0.61646  1.0000
  Ga  Ga2       1.0  0.36670  0.36670  0.38354  1.0000
  P   P1        1.0  0.88460  0.88460  0.86455  1.0000
  P   P2        1.0  0.11540  0.11540  0.13545  1.0000
