data_image0
_chemical_formula_structural       Ga2P2
_chemical_formula_sum              "Ga2 P2"
_cell_length_a       3.10909
_cell_length_b       3.10897
_cell_length_c       5.38896
_cell_angle_alpha    92.0631
_cell_angle_beta     87.9371
_cell_angle_gamma    74.8398

_space_group_name_H-M_alt    "P 1"
_space_group_IT_number       1

loop_
  _space_group_symop_operation_xyz
  'x, y, z'

loop_
  _atom_site_type_symbol
  _atom_site_label
  _atom_site_symmetry_multiplicity
  _atom_site_fract_x
  _atom_site_fract_y
  _atom_site_fract_z
  _atom_site_occupancy
  Ga  Ga1       1.0  0.58679  0.88692  0.15001  1.0000
  Ga  Ga2       1.0  0.61308  0.91321  0.65001  1.0000
  P   P1        1.0  0.60006  0.40004  0.39999  1.0000
  P   P2        1.0  0.09996  0.89994  0.89999  1.0000
