data_image0
_chemical_formula_structural       Ga2P2
_chemical_formula_sum              "Ga2 P2"
_cell_length_a       3.75684
_cell_length_b       3.77138
_cell_length_c       5.31907
_cell_angle_alpha    110.764
_cell_angle_beta     90
_cell_angle_gamma    90

_space_group_name_H-M_alt    "P 1"
_space_group_IT_number       1

loop_
  _space_group_symop_operation_xyz
  'x, y, z'

loop_
  _atom_site_type_symbol
  _atom_site_label
  _atom_site_symmetry_multiplicity
  _atom_site_fract_x
  _atom_site_fract_y
  _atom_site_fract_z
  _atom_site_occupancy
  Ga  Ga1       1.0  0.25000  0.07815  0.15630  1.0000
  Ga  Ga2       1.0  0.75000  0.92185  0.84370  1.0000
  P   P1        1.0  0.25000  0.35485  0.70970  1.0000
  P   P2        1.0  0.75000  0.64515  0.29030  1.0000
