data_image0
_chemical_formula_structural       Ga4P4
_chemical_formula_sum              "Ga4 P4"
_cell_length_a       4.7205
_cell_length_b       5.98607
_cell_length_c       7.7201
_cell_angle_alpha    89.9979
_cell_angle_beta     90.0005
_cell_angle_gamma    89.9998

_space_group_name_H-M_alt    "P 1"
_space_group_IT_number       1

loop_
  _space_group_symop_operation_xyz
  'x, y, z'

loop_
  _atom_site_type_symbol
  _atom_site_label
  _atom_site_symmetry_multiplicity
  _atom_site_fract_x
  _atom_site_fract_y
  _atom_site_fract_z
  _atom_site_occupancy
  Ga  Ga1       1.0  0.25000  0.85612  0.53978  1.0000
  Ga  Ga2       1.0  0.25000  0.64390  0.03979  1.0000
  Ga  Ga3       1.0  0.75000  0.14388  0.46020  1.0000
  Ga  Ga4       1.0  0.75000  0.35612  0.96024  1.0000
  P   P1        1.0  0.25000  0.35977  0.68291  1.0000
  P   P2        1.0  0.25000  0.14021  0.18286  1.0000
  P   P3        1.0  0.75000  0.64023  0.31712  1.0000
  P   P4        1.0  0.75000  0.85977  0.81711  1.0000
