data_image0
_chemical_formula_structural       Ga2P2
_chemical_formula_sum              "Ga2 P2"
_cell_length_a       6.46405
_cell_length_b       6.46405
_cell_length_c       5.819
_cell_angle_alpha    69.9385
_cell_angle_beta     69.9385
_cell_angle_gamma    33.7391

_space_group_name_H-M_alt    "P 1"
_space_group_IT_number       1

loop_
  _space_group_symop_operation_xyz
  'x, y, z'

loop_
  _atom_site_type_symbol
  _atom_site_label
  _atom_site_symmetry_multiplicity
  _atom_site_fract_x
  _atom_site_fract_y
  _atom_site_fract_z
  _atom_site_occupancy
  Ga  Ga1       1.0  0.89488  0.89488  0.82955  1.0000
  Ga  Ga2       1.0  0.10512  0.10512  0.17045  1.0000
  P   P1        1.0  0.64831  0.64831  0.63832  1.0000
  P   P2        1.0  0.35169  0.35169  0.36168  1.0000
