data_image0
_chemical_formula_structural       Ga2P2
_chemical_formula_sum              "Ga2 P2"
_cell_length_a       3.53184
_cell_length_b       5.99445
_cell_length_c       5.29674
_cell_angle_alpha    74.7142
_cell_angle_beta     90
_cell_angle_gamma    72.8669

_space_group_name_H-M_alt    "P 1"
_space_group_IT_number       1

loop_
  _space_group_symop_operation_xyz
  'x, y, z'

loop_
  _atom_site_type_symbol
  _atom_site_label
  _atom_site_symmetry_multiplicity
  _atom_site_fract_x
  _atom_site_fract_y
  _atom_site_fract_z
  _atom_site_occupancy
  Ga  Ga1       1.0  0.75008  0.49984  0.09257  1.0000
  Ga  Ga2       1.0  0.49992  0.00016  0.49076  1.0000
  P   P1        1.0  0.00514  0.98973  0.00110  1.0000
  P   P2        1.0  0.24487  0.51027  0.58223  1.0000
