data_image0
_chemical_formula_structural       Ga4P4
_chemical_formula_sum              "Ga4 P4"
_cell_length_a       7.61992
_cell_length_b       4.36346
_cell_length_c       5.77536
_cell_angle_alpha    90
_cell_angle_beta     109.259
_cell_angle_gamma    90

_space_group_name_H-M_alt    "P 1"
_space_group_IT_number       1

loop_
  _space_group_symop_operation_xyz
  'x, y, z'

loop_
  _atom_site_type_symbol
  _atom_site_label
  _atom_site_symmetry_multiplicity
  _atom_site_fract_x
  _atom_site_fract_y
  _atom_site_fract_z
  _atom_site_occupancy
  Ga  Ga1       1.0  0.28640  0.75000  0.14561  1.0000
  Ga  Ga2       1.0  0.21360  0.25000  0.85439  1.0000
  Ga  Ga3       1.0  0.78640  0.75000  0.14561  1.0000
  Ga  Ga4       1.0  0.71360  0.25000  0.85439  1.0000
  P   P1        1.0  0.43327  0.75000  0.73309  1.0000
  P   P2        1.0  0.06673  0.25000  0.26691  1.0000
  P   P3        1.0  0.93327  0.75000  0.73309  1.0000
  P   P4        1.0  0.56673  0.25000  0.26691  1.0000
