data_image0
_chemical_formula_structural       Ga3P3
_chemical_formula_sum              "Ga3 P3"
_cell_length_a       6.35708
_cell_length_b       6.35708
_cell_length_c       7.83083
_cell_angle_alpha    73.5987
_cell_angle_beta     73.5987
_cell_angle_gamma    30.705

_space_group_name_H-M_alt    "P 1"
_space_group_IT_number       1

loop_
  _space_group_symop_operation_xyz
  'x, y, z'

loop_
  _atom_site_type_symbol
  _atom_site_label
  _atom_site_symmetry_multiplicity
  _atom_site_fract_x
  _atom_site_fract_y
  _atom_site_fract_z
  _atom_site_occupancy
  Ga  Ga1       1.0  0.01006  0.01006  0.03079  1.0000
  Ga  Ga2       1.0  0.66786  0.66786  0.59281  1.0000
  Ga  Ga3       1.0  0.27161  0.27161  0.97496  1.0000
  P   P1        1.0  0.61277  0.61277  0.26524  1.0000
  P   P2        1.0  0.33622  0.33622  0.32172  1.0000
  P   P3        1.0  0.93482  0.93482  0.64782  1.0000
