data_image0
_chemical_formula_structural       Ga6P6
_chemical_formula_sum              "Ga6 P6"
_cell_length_a       4.9523
_cell_length_b       5.62809
_cell_length_c       9.05072
_cell_angle_alpha    95.1666
_cell_angle_beta     97.7593
_cell_angle_gamma    105.159

_space_group_name_H-M_alt    "P 1"
_space_group_IT_number       1

loop_
  _space_group_symop_operation_xyz
  'x, y, z'

loop_
  _atom_site_type_symbol
  _atom_site_label
  _atom_site_symmetry_multiplicity
  _atom_site_fract_x
  _atom_site_fract_y
  _atom_site_fract_z
  _atom_site_occupancy
  Ga  Ga1       1.0  0.11626  0.56260  0.24785  1.0000
  Ga  Ga2       1.0  0.07586  0.83692  0.81277  1.0000
  Ga  Ga3       1.0  0.32492  0.09656  0.52719  1.0000
  Ga  Ga4       1.0  0.71142  0.71038  0.45988  1.0000
  Ga  Ga5       1.0  0.25879  0.38427  0.83078  1.0000
  Ga  Ga6       1.0  0.46181  0.19668  0.15545  1.0000
  P   P1        1.0  0.92992  0.97950  0.22029  1.0000
  P   P2        1.0  0.20158  0.57701  0.56363  1.0000
  P   P3        1.0  0.80959  0.48342  0.97906  1.0000
  P   P4        1.0  0.60642  0.83041  0.98088  1.0000
  P   P5        1.0  0.82016  0.22659  0.42577  1.0000
  P   P6        1.0  0.68324  0.11557  0.79657  1.0000
