data_image0
_chemical_formula_structural       Ga4P4
_chemical_formula_sum              "Ga4 P4"
_cell_length_a       3.44869
_cell_length_b       6.89738
_cell_length_c       5.18435
_cell_angle_alpha    90
_cell_angle_beta     90
_cell_angle_gamma    90.0006

_space_group_name_H-M_alt    "P 1"
_space_group_IT_number       1

loop_
  _space_group_symop_operation_xyz
  'x, y, z'

loop_
  _atom_site_type_symbol
  _atom_site_label
  _atom_site_symmetry_multiplicity
  _atom_site_fract_x
  _atom_site_fract_y
  _atom_site_fract_z
  _atom_site_occupancy
  Ga  Ga1       1.0  0.50333  0.24694  0.75000  1.0000
  Ga  Ga2       1.0  0.49388  0.25167  0.25000  1.0000
  Ga  Ga3       1.0  0.50333  0.74694  0.75000  1.0000
  Ga  Ga4       1.0  0.49388  0.75167  0.25000  1.0000
  P   P1        1.0  0.48919  0.00169  0.25000  1.0000
  P   P2        1.0  0.00337  0.24460  0.75000  1.0000
  P   P3        1.0  0.48919  0.50169  0.25000  1.0000
  P   P4        1.0  0.00337  0.74460  0.75000  1.0000
