data_image0
_chemical_formula_structural       Ga4P4
_chemical_formula_sum              "Ga4 P4"
_cell_length_a       4.48853
_cell_length_b       5.32645
_cell_length_c       7.17681
_cell_angle_alpha    90
_cell_angle_beta     90
_cell_angle_gamma    90

_space_group_name_H-M_alt    "P 1"
_space_group_IT_number       1

loop_
  _space_group_symop_operation_xyz
  'x, y, z'

loop_
  _atom_site_type_symbol
  _atom_site_label
  _atom_site_symmetry_multiplicity
  _atom_site_fract_x
  _atom_site_fract_y
  _atom_site_fract_z
  _atom_site_occupancy
  Ga  Ga1       1.0  0.25000  0.36714  0.68206  1.0000
  Ga  Ga2       1.0  0.25000  0.13286  0.18206  1.0000
  Ga  Ga3       1.0  0.75000  0.63286  0.31794  1.0000
  Ga  Ga4       1.0  0.75000  0.86714  0.81794  1.0000
  P   P1        1.0  0.25000  0.87705  0.53132  1.0000
  P   P2        1.0  0.25000  0.62295  0.03132  1.0000
  P   P3        1.0  0.75000  0.12295  0.46868  1.0000
  P   P4        1.0  0.75000  0.37705  0.96868  1.0000
