data_image0
_chemical_formula_structural       Ga4P4
_chemical_formula_sum              "Ga4 P4"
_cell_length_a       3.3225
_cell_length_b       7.82026
_cell_length_c       5.99157
_cell_angle_alpha    91.3061
_cell_angle_beta     91.553
_cell_angle_gamma    90.217

_space_group_name_H-M_alt    "P 1"
_space_group_IT_number       1

loop_
  _space_group_symop_operation_xyz
  'x, y, z'

loop_
  _atom_site_type_symbol
  _atom_site_label
  _atom_site_symmetry_multiplicity
  _atom_site_fract_x
  _atom_site_fract_y
  _atom_site_fract_z
  _atom_site_occupancy
  Ga  Ga1       1.0  0.63837  0.39788  0.95561  1.0000
  Ga  Ga2       1.0  0.11824  0.13964  0.54170  1.0000
  Ga  Ga3       1.0  0.63837  0.89788  0.95561  1.0000
  Ga  Ga4       1.0  0.11824  0.63964  0.54170  1.0000
  P   P1        1.0  0.62113  0.48522  0.62520  1.0000
  P   P2        1.0  0.13297  0.24047  0.87219  1.0000
  P   P3        1.0  0.62113  0.98522  0.62520  1.0000
  P   P4        1.0  0.13297  0.74047  0.87219  1.0000
