data_image0
_chemical_formula_structural       Ga4P4
_chemical_formula_sum              "Ga4 P4"
_cell_length_a       2.92621
_cell_length_b       5.85214
_cell_length_c       4.90132
_cell_angle_alpha    89.9961
_cell_angle_beta     90.0004
_cell_angle_gamma    120.004

_space_group_name_H-M_alt    "P 1"
_space_group_IT_number       1

loop_
  _space_group_symop_operation_xyz
  'x, y, z'

loop_
  _atom_site_type_symbol
  _atom_site_label
  _atom_site_symmetry_multiplicity
  _atom_site_fract_x
  _atom_site_fract_y
  _atom_site_fract_z
  _atom_site_occupancy
  Ga  Ga1       1.0  0.33314  0.33315  0.68432  1.0000
  Ga  Ga2       1.0  0.66686  0.16685  0.18422  1.0000
  Ga  Ga3       1.0  0.33314  0.83314  0.68432  1.0000
  Ga  Ga4       1.0  0.66686  0.66685  0.18422  1.0000
  P   P1        1.0  0.99999  0.49999  0.93303  1.0000
  P   P2        1.0  0.00001  0.00001  0.43322  1.0000
  P   P3        1.0  0.99999  0.99999  0.93303  1.0000
  P   P4        1.0  0.00001  0.50001  0.43322  1.0000
