data_image0
_chemical_formula_structural       Ga4P4
_chemical_formula_sum              "Ga4 P4"
_cell_length_a       2.8795
_cell_length_b       5.75908
_cell_length_c       5.1764
_cell_angle_alpha    89.8065
_cell_angle_beta     89.8063
_cell_angle_gamma    89.2225

_space_group_name_H-M_alt    "P 1"
_space_group_IT_number       1

loop_
  _space_group_symop_operation_xyz
  'x, y, z'

loop_
  _atom_site_type_symbol
  _atom_site_label
  _atom_site_symmetry_multiplicity
  _atom_site_fract_x
  _atom_site_fract_y
  _atom_site_fract_z
  _atom_site_occupancy
  Ga  Ga1       1.0  0.48820  0.24238  0.25807  1.0000
  Ga  Ga2       1.0  0.48476  0.24410  0.75802  1.0000
  Ga  Ga3       1.0  0.48820  0.74238  0.25807  1.0000
  Ga  Ga4       1.0  0.48476  0.74409  0.75802  1.0000
  P   P1        1.0  0.98662  0.24321  0.50795  1.0000
  P   P2        1.0  0.48642  0.49331  0.00795  1.0000
  P   P3        1.0  0.98662  0.74321  0.50795  1.0000
  P   P4        1.0  0.48642  0.99331  0.00795  1.0000
