data_image0
_chemical_formula_structural       Ga3P3
_chemical_formula_sum              "Ga3 P3"
_cell_length_a       6.19728
_cell_length_b       6.19728
_cell_length_c       8.76404
_cell_angle_alpha    69.9312
_cell_angle_beta     69.9312
_cell_angle_gamma    31.6262

_space_group_name_H-M_alt    "P 1"
_space_group_IT_number       1

loop_
  _space_group_symop_operation_xyz
  'x, y, z'

loop_
  _atom_site_type_symbol
  _atom_site_label
  _atom_site_symmetry_multiplicity
  _atom_site_fract_x
  _atom_site_fract_y
  _atom_site_fract_z
  _atom_site_occupancy
  Ga  Ga1       1.0  0.01913  0.01912  0.99870  1.0000
  Ga  Ga2       1.0  0.39512  0.39512  0.72594  1.0000
  Ga  Ga3       1.0  0.31342  0.31343  0.32918  1.0000
  P   P1        1.0  0.67202  0.67202  0.67009  1.0000
  P   P2        1.0  0.01692  0.01692  0.40044  1.0000
  P   P3        1.0  0.75005  0.75005  0.04232  1.0000
