data_image0
_chemical_formula_structural       Ga8P8
_chemical_formula_sum              "Ga8 P8"
_cell_length_a       6.54213
_cell_length_b       6.1554
_cell_length_c       7.59608
_cell_angle_alpha    51.8457
_cell_angle_beta     106.933
_cell_angle_gamma    109.995

_space_group_name_H-M_alt    "P 1"
_space_group_IT_number       1

loop_
  _space_group_symop_operation_xyz
  'x, y, z'

loop_
  _atom_site_type_symbol
  _atom_site_label
  _atom_site_symmetry_multiplicity
  _atom_site_fract_x
  _atom_site_fract_y
  _atom_site_fract_z
  _atom_site_occupancy
  Ga  Ga1       1.0  0.90879  0.73185  0.03317  1.0000
  Ga  Ga2       1.0  0.98083  0.03142  0.15163  1.0000
  Ga  Ga3       1.0  0.04022  0.52018  0.42157  1.0000
  Ga  Ga4       1.0  0.55926  0.12934  0.49693  1.0000
  Ga  Ga5       1.0  0.90879  0.73185  0.53317  1.0000
  Ga  Ga6       1.0  0.98083  0.03142  0.65163  1.0000
  Ga  Ga7       1.0  0.04022  0.52018  0.92158  1.0000
  Ga  Ga8       1.0  0.55926  0.12934  0.99693  1.0000
  P   P1        1.0  0.22728  0.30290  0.32762  1.0000
  P   P2        1.0  0.65579  0.65755  0.25731  1.0000
  P   P3        1.0  0.79497  0.22196  0.25970  1.0000
  P   P4        1.0  0.33287  0.90480  0.30207  1.0000
  P   P5        1.0  0.22728  0.30290  0.82762  1.0000
  P   P6        1.0  0.65579  0.65755  0.75731  1.0000
  P   P7        1.0  0.79497  0.22196  0.75970  1.0000
  P   P8        1.0  0.33287  0.90480  0.80207  1.0000
