data_image0
_chemical_formula_structural       Ga4P4
_chemical_formula_sum              "Ga4 P4"
_cell_length_a       7.56463
_cell_length_b       4.10555
_cell_length_c       6.52531
_cell_angle_alpha    89.7752
_cell_angle_beta     90
_cell_angle_gamma    90

_space_group_name_H-M_alt    "P 1"
_space_group_IT_number       1

loop_
  _space_group_symop_operation_xyz
  'x, y, z'

loop_
  _atom_site_type_symbol
  _atom_site_label
  _atom_site_symmetry_multiplicity
  _atom_site_fract_x
  _atom_site_fract_y
  _atom_site_fract_z
  _atom_site_occupancy
  Ga  Ga1       1.0  0.28739  0.22778  0.53285  1.0000
  Ga  Ga2       1.0  0.78739  0.77221  0.96715  1.0000
  Ga  Ga3       1.0  0.71261  0.77221  0.46715  1.0000
  Ga  Ga4       1.0  0.21261  0.22778  0.03285  1.0000
  P   P1        1.0  0.92669  0.27337  0.67635  1.0000
  P   P2        1.0  0.42669  0.72663  0.82365  1.0000
  P   P3        1.0  0.07331  0.72663  0.32365  1.0000
  P   P4        1.0  0.57331  0.27337  0.17635  1.0000
