data_image0
_chemical_formula_structural       Ga2P2
_chemical_formula_sum              "Ga2 P2"
_cell_length_a       7.52126
_cell_length_b       3.72318
_cell_length_c       7.54346
_cell_angle_alpha    90.4818
_cell_angle_beta     89.5758
_cell_angle_gamma    120.974

_space_group_name_H-M_alt    "P 1"
_space_group_IT_number       1

loop_
  _space_group_symop_operation_xyz
  'x, y, z'

loop_
  _atom_site_type_symbol
  _atom_site_label
  _atom_site_symmetry_multiplicity
  _atom_site_fract_x
  _atom_site_fract_y
  _atom_site_fract_z
  _atom_site_occupancy
  Ga  Ga1       1.0  0.16669  0.66650  0.24997  1.0000
  Ga  Ga2       1.0  0.66669  0.66650  0.24997  1.0000
  P   P1        1.0  0.33333  0.33350  0.75003  1.0000
  P   P2        1.0  0.83334  0.33350  0.75003  1.0000
