data_image0
_chemical_formula_structural       Ga4P4
_chemical_formula_sum              "Ga4 P4"
_cell_length_a       3.55428
_cell_length_b       4.58893
_cell_length_c       7.59523
_cell_angle_alpha    90
_cell_angle_beta     90
_cell_angle_gamma    90

_space_group_name_H-M_alt    "P 1"
_space_group_IT_number       1

loop_
  _space_group_symop_operation_xyz
  'x, y, z'

loop_
  _atom_site_type_symbol
  _atom_site_label
  _atom_site_symmetry_multiplicity
  _atom_site_fract_x
  _atom_site_fract_y
  _atom_site_fract_z
  _atom_site_occupancy
  Ga  Ga1       1.0  0.53587  0.48847  0.38710  1.0000
  Ga  Ga2       1.0  0.96413  0.51153  0.88710  1.0000
  Ga  Ga3       1.0  0.46413  0.98847  0.11290  1.0000
  Ga  Ga4       1.0  0.03587  0.01153  0.61290  1.0000
  P   P1        1.0  0.74951  0.51278  0.77097  1.0000
  P   P2        1.0  0.75049  0.48722  0.27097  1.0000
  P   P3        1.0  0.25049  0.01278  0.72903  1.0000
  P   P4        1.0  0.24951  0.98722  0.22903  1.0000
