data_image0
_chemical_formula_structural       Ga4P4
_chemical_formula_sum              "Ga4 P4"
_cell_length_a       4.92187
_cell_length_b       4.92187
_cell_length_c       4.92187
_cell_angle_alpha    90
_cell_angle_beta     90
_cell_angle_gamma    90

_space_group_name_H-M_alt    "P 1"
_space_group_IT_number       1

loop_
  _space_group_symop_operation_xyz
  'x, y, z'

loop_
  _atom_site_type_symbol
  _atom_site_label
  _atom_site_symmetry_multiplicity
  _atom_site_fract_x
  _atom_site_fract_y
  _atom_site_fract_z
  _atom_site_occupancy
  Ga  Ga1       1.0  0.09298  0.09298  0.09298  1.0000
  Ga  Ga2       1.0  0.40702  0.90702  0.59298  1.0000
  Ga  Ga3       1.0  0.90702  0.59298  0.40702  1.0000
  Ga  Ga4       1.0  0.59298  0.40702  0.90702  1.0000
  P   P1        1.0  0.39943  0.39943  0.39943  1.0000
  P   P2        1.0  0.10057  0.60057  0.89943  1.0000
  P   P3        1.0  0.60057  0.89943  0.10057  1.0000
  P   P4        1.0  0.89943  0.10057  0.60057  1.0000
