data_image0
_chemical_formula_structural       Ga2P2
_chemical_formula_sum              "Ga2 P2"
_cell_length_a       5.92951
_cell_length_b       5.92951
_cell_length_c       5.03076
_cell_angle_alpha    73.6125
_cell_angle_beta     73.6125
_cell_angle_gamma    34.6088

_space_group_name_H-M_alt    "P 1"
_space_group_IT_number       1

loop_
  _space_group_symop_operation_xyz
  'x, y, z'

loop_
  _atom_site_type_symbol
  _atom_site_label
  _atom_site_symmetry_multiplicity
  _atom_site_fract_x
  _atom_site_fract_y
  _atom_site_fract_z
  _atom_site_occupancy
  Ga  Ga1       1.0  0.11145  0.11145  0.74497  1.0000
  Ga  Ga2       1.0  0.88855  0.88855  0.25503  1.0000
  P   P1        1.0  0.37327  0.37327  0.76855  1.0000
  P   P2        1.0  0.62673  0.62673  0.23145  1.0000
