data_image0
_chemical_formula_structural       Ga4P4
_chemical_formula_sum              "Ga4 P4"
_cell_length_a       4.78415
_cell_length_b       5.68263
_cell_length_c       7.37938
_cell_angle_alpha    90
_cell_angle_beta     90
_cell_angle_gamma    90

_space_group_name_H-M_alt    "P 1"
_space_group_IT_number       1

loop_
  _space_group_symop_operation_xyz
  'x, y, z'

loop_
  _atom_site_type_symbol
  _atom_site_label
  _atom_site_symmetry_multiplicity
  _atom_site_fract_x
  _atom_site_fract_y
  _atom_site_fract_z
  _atom_site_occupancy
  Ga  Ga1       1.0  0.25000  0.35261  0.68784  1.0000
  Ga  Ga2       1.0  0.25000  0.14739  0.18784  1.0000
  Ga  Ga3       1.0  0.75000  0.64739  0.31216  1.0000
  Ga  Ga4       1.0  0.75000  0.85261  0.81216  1.0000
  P   P1        1.0  0.25000  0.84763  0.53957  1.0000
  P   P2        1.0  0.25000  0.65237  0.03957  1.0000
  P   P3        1.0  0.75000  0.15237  0.46043  1.0000
  P   P4        1.0  0.75000  0.34763  0.96043  1.0000
