data_image0
_chemical_formula_structural       Ga4P4
_chemical_formula_sum              "Ga4 P4"
_cell_length_a       3.85352
_cell_length_b       5.05622
_cell_length_c       6.59213
_cell_angle_alpha    90
_cell_angle_beta     90
_cell_angle_gamma    90

_space_group_name_H-M_alt    "P 1"
_space_group_IT_number       1

loop_
  _space_group_symop_operation_xyz
  'x, y, z'

loop_
  _atom_site_type_symbol
  _atom_site_label
  _atom_site_symmetry_multiplicity
  _atom_site_fract_x
  _atom_site_fract_y
  _atom_site_fract_z
  _atom_site_occupancy
  Ga  Ga1       1.0  0.75000  0.24133  0.91603  1.0000
  Ga  Ga2       1.0  0.75000  0.74133  0.58397  1.0000
  Ga  Ga3       1.0  0.25000  0.75867  0.08397  1.0000
  Ga  Ga4       1.0  0.25000  0.25867  0.41603  1.0000
  P   P1        1.0  0.75000  0.49710  0.24407  1.0000
  P   P2        1.0  0.75000  0.99709  0.25593  1.0000
  P   P3        1.0  0.25000  0.50291  0.75592  1.0000
  P   P4        1.0  0.25000  0.00291  0.74408  1.0000
