data_image0
_chemical_formula_structural       Ga6P6
_chemical_formula_sum              "Ga6 P6"
_cell_length_a       4.56715
_cell_length_b       5.46409
_cell_length_c       9.57967
_cell_angle_alpha    93.8543
_cell_angle_beta     94.5409
_cell_angle_gamma    113.579

_space_group_name_H-M_alt    "P 1"
_space_group_IT_number       1

loop_
  _space_group_symop_operation_xyz
  'x, y, z'

loop_
  _atom_site_type_symbol
  _atom_site_label
  _atom_site_symmetry_multiplicity
  _atom_site_fract_x
  _atom_site_fract_y
  _atom_site_fract_z
  _atom_site_occupancy
  Ga  Ga1       1.0  0.97598  0.85817  0.35510  1.0000
  Ga  Ga2       1.0  0.02402  0.14183  0.64490  1.0000
  Ga  Ga3       1.0  0.55131  0.13065  0.86449  1.0000
  Ga  Ga4       1.0  0.44869  0.86936  0.13551  1.0000
  Ga  Ga5       1.0  0.73340  0.54648  0.64650  1.0000
  Ga  Ga6       1.0  0.26660  0.45352  0.35350  1.0000
  P   P1        1.0  0.75958  0.47402  0.13804  1.0000
  P   P2        1.0  0.86345  0.75918  0.94248  1.0000
  P   P3        1.0  0.62500  0.15648  0.40817  1.0000
  P   P4        1.0  0.37500  0.84352  0.59183  1.0000
  P   P5        1.0  0.24042  0.52598  0.86196  1.0000
  P   P6        1.0  0.13655  0.24082  0.05752  1.0000
