data_image0
_chemical_formula_structural       Ga2P2
_chemical_formula_sum              "Ga2 P2"
_cell_length_a       6.88509
_cell_length_b       6.88509
_cell_length_c       6.13897
_cell_angle_alpha    69.4295
_cell_angle_beta     69.4295
_cell_angle_gamma    32.9373

_space_group_name_H-M_alt    "P 1"
_space_group_IT_number       1

loop_
  _space_group_symop_operation_xyz
  'x, y, z'

loop_
  _atom_site_type_symbol
  _atom_site_label
  _atom_site_symmetry_multiplicity
  _atom_site_fract_x
  _atom_site_fract_y
  _atom_site_fract_z
  _atom_site_occupancy
  Ga  Ga1       1.0  0.60135  0.60135  0.67075  1.0000
  Ga  Ga2       1.0  0.39865  0.39865  0.32925  1.0000
  P   P1        1.0  0.84553  0.84553  0.87218  1.0000
  P   P2        1.0  0.15447  0.15447  0.12782  1.0000
