data_image0
_chemical_formula_structural       Ga10P10
_chemical_formula_sum              "Ga10 P10"
_cell_length_a       8.32394
_cell_length_b       6.88976
_cell_length_c       6.52716
_cell_angle_alpha    67.7382
_cell_angle_beta     71.4085
_cell_angle_gamma    72.4198

_space_group_name_H-M_alt    "P 1"
_space_group_IT_number       1

loop_
  _space_group_symop_operation_xyz
  'x, y, z'

loop_
  _atom_site_type_symbol
  _atom_site_label
  _atom_site_symmetry_multiplicity
  _atom_site_fract_x
  _atom_site_fract_y
  _atom_site_fract_z
  _atom_site_occupancy
  Ga  Ga1       1.0  0.25000  0.50000  0.50000  1.0000
  Ga  Ga2       1.0  0.42107  0.46529  0.85042  1.0000
  Ga  Ga3       1.0  0.07893  0.53471  0.14958  1.0000
  Ga  Ga4       1.0  0.31485  0.00363  0.73700  1.0000
  Ga  Ga5       1.0  0.18515  0.99637  0.26300  1.0000
  Ga  Ga6       1.0  0.75000  0.50000  0.50000  1.0000
  Ga  Ga7       1.0  0.92107  0.46529  0.85042  1.0000
  Ga  Ga8       1.0  0.57893  0.53471  0.14958  1.0000
  Ga  Ga9       1.0  0.81484  0.00363  0.73700  1.0000
  Ga  Ga10      1.0  0.68515  0.99637  0.26300  1.0000
  P   P1        1.0  0.00000  0.00000  0.00000  1.0000
  P   P2        1.0  0.37256  0.24131  0.26846  1.0000
  P   P3        1.0  0.12744  0.75869  0.73154  1.0000
  P   P4        1.0  0.44543  0.78548  0.43281  1.0000
  P   P5        1.0  0.05457  0.21452  0.56719  1.0000
  P   P6        1.0  0.50000  0.00000  0.00000  1.0000
  P   P7        1.0  0.87256  0.24131  0.26846  1.0000
  P   P8        1.0  0.62744  0.75869  0.73154  1.0000
  P   P9        1.0  0.94543  0.78548  0.43281  1.0000
  P   P10       1.0  0.55457  0.21452  0.56719  1.0000
