data_image0
_chemical_formula_structural       Ga4P4
_chemical_formula_sum              "Ga4 P4"
_cell_length_a       5.64598
_cell_length_b       5.64598
_cell_length_c       4.5038
_cell_angle_alpha    90
_cell_angle_beta     90
_cell_angle_gamma    119.67

_space_group_name_H-M_alt    "P 1"
_space_group_IT_number       1

loop_
  _space_group_symop_operation_xyz
  'x, y, z'

loop_
  _atom_site_type_symbol
  _atom_site_label
  _atom_site_symmetry_multiplicity
  _atom_site_fract_x
  _atom_site_fract_y
  _atom_site_fract_z
  _atom_site_occupancy
  Ga  Ga1       1.0  0.33481  0.66519  0.00000  1.0000
  Ga  Ga2       1.0  0.66675  0.33325  0.50000  1.0000
  Ga  Ga3       1.0  0.82055  0.66093  0.00000  1.0000
  Ga  Ga4       1.0  0.33907  0.17945  0.00000  1.0000
  P   P1        1.0  0.83507  0.16493  0.00000  1.0000
  P   P2        1.0  0.16612  0.32959  0.50000  1.0000
  P   P3        1.0  0.67041  0.83388  0.50000  1.0000
  P   P4        1.0  0.16746  0.83254  0.50000  1.0000
