data_image0
_chemical_formula_structural       Ga2P2
_chemical_formula_sum              "Ga2 P2"
_cell_length_a       2.8795
_cell_length_b       2.87954
_cell_length_c       5.1764
_cell_angle_alpha    89.8065
_cell_angle_beta     89.8063
_cell_angle_gamma    89.2225

_space_group_name_H-M_alt    "P 1"
_space_group_IT_number       1

loop_
  _space_group_symop_operation_xyz
  'x, y, z'

loop_
  _atom_site_type_symbol
  _atom_site_label
  _atom_site_symmetry_multiplicity
  _atom_site_fract_x
  _atom_site_fract_y
  _atom_site_fract_z
  _atom_site_occupancy
  Ga  Ga1       1.0  0.48820  0.48476  0.25807  1.0000
  Ga  Ga2       1.0  0.48476  0.48819  0.75802  1.0000
  P   P1        1.0  0.98662  0.48643  0.50795  1.0000
  P   P2        1.0  0.48642  0.98663  0.00795  1.0000
