data_image0
_chemical_formula_structural       Ga4P4
_chemical_formula_sum              "Ga4 P4"
_cell_length_a       5.86934
_cell_length_b       4.38801
_cell_length_c       6.16646
_cell_angle_alpha    71.9241
_cell_angle_beta     90
_cell_angle_gamma    90

_space_group_name_H-M_alt    "P 1"
_space_group_IT_number       1

loop_
  _space_group_symop_operation_xyz
  'x, y, z'

loop_
  _atom_site_type_symbol
  _atom_site_label
  _atom_site_symmetry_multiplicity
  _atom_site_fract_x
  _atom_site_fract_y
  _atom_site_fract_z
  _atom_site_occupancy
  Ga  Ga1       1.0  0.75000  0.90952  0.63381  1.0000
  Ga  Ga2       1.0  0.25000  0.77123  0.93483  1.0000
  Ga  Ga3       1.0  0.25000  0.09048  0.36619  1.0000
  Ga  Ga4       1.0  0.75000  0.22877  0.06517  1.0000
  P   P1        1.0  0.04552  0.37822  0.69869  1.0000
  P   P2        1.0  0.45448  0.37822  0.69869  1.0000
  P   P3        1.0  0.54552  0.62178  0.30131  1.0000
  P   P4        1.0  0.95448  0.62178  0.30131  1.0000
