data_image0
_chemical_formula_structural       Ga4P4
_chemical_formula_sum              "Ga4 P4"
_cell_length_a       5.15143
_cell_length_b       3.02008
_cell_length_c       9.98756
_cell_angle_alpha    90
_cell_angle_beta     90.0537
_cell_angle_gamma    90

_space_group_name_H-M_alt    "P 1"
_space_group_IT_number       1

loop_
  _space_group_symop_operation_xyz
  'x, y, z'

loop_
  _atom_site_type_symbol
  _atom_site_label
  _atom_site_symmetry_multiplicity
  _atom_site_fract_x
  _atom_site_fract_y
  _atom_site_fract_z
  _atom_site_occupancy
  Ga  Ga1       1.0  0.25017  0.42310  0.34150  1.0000
  Ga  Ga2       1.0  0.74983  0.92310  0.15850  1.0000
  Ga  Ga3       1.0  0.74983  0.57690  0.65850  1.0000
  Ga  Ga4       1.0  0.25017  0.07690  0.84150  1.0000
  P   P1        1.0  0.75018  0.39560  0.90295  1.0000
  P   P2        1.0  0.24982  0.89560  0.59705  1.0000
  P   P3        1.0  0.24982  0.60440  0.09705  1.0000
  P   P4        1.0  0.75018  0.10440  0.40295  1.0000
