data_image0
_chemical_formula_structural       Ga4P4
_chemical_formula_sum              "Ga4 P4"
_cell_length_a       3.04261
_cell_length_b       6.08522
_cell_length_c       7.27355
_cell_angle_alpha    77.9271
_cell_angle_beta     77.9271
_cell_angle_gamma    60

_space_group_name_H-M_alt    "P 1"
_space_group_IT_number       1

loop_
  _space_group_symop_operation_xyz
  'x, y, z'

loop_
  _atom_site_type_symbol
  _atom_site_label
  _atom_site_symmetry_multiplicity
  _atom_site_fract_x
  _atom_site_fract_y
  _atom_site_fract_z
  _atom_site_occupancy
  Ga  Ga1       1.0  0.89057  0.44528  0.32828  1.0000
  Ga  Ga2       1.0  0.10943  0.05472  0.67172  1.0000
  Ga  Ga3       1.0  0.89057  0.94529  0.32828  1.0000
  Ga  Ga4       1.0  0.10943  0.55471  0.67172  1.0000
  P   P1        1.0  0.39292  0.19646  0.82123  1.0000
  P   P2        1.0  0.60708  0.30354  0.17877  1.0000
  P   P3        1.0  0.39292  0.69646  0.82123  1.0000
  P   P4        1.0  0.60708  0.80354  0.17877  1.0000
