data_image0
_chemical_formula_structural       Ga4P4
_chemical_formula_sum              "Ga4 P4"
_cell_length_a       5.89087
_cell_length_b       6.62951
_cell_length_c       4.81296
_cell_angle_alpha    59.475
_cell_angle_beta     75.7934
_cell_angle_gamma    44.7316

_space_group_name_H-M_alt    "P 1"
_space_group_IT_number       1

loop_
  _space_group_symop_operation_xyz
  'x, y, z'

loop_
  _atom_site_type_symbol
  _atom_site_label
  _atom_site_symmetry_multiplicity
  _atom_site_fract_x
  _atom_site_fract_y
  _atom_site_fract_z
  _atom_site_occupancy
  Ga  Ga1       1.0  0.37201  0.12799  0.37201  1.0000
  Ga  Ga2       1.0  0.12799  0.37201  0.12799  1.0000
  Ga  Ga3       1.0  0.87799  0.12201  0.87799  1.0000
  Ga  Ga4       1.0  0.12201  0.87799  0.12201  1.0000
  P   P1        1.0  0.55286  0.94714  0.94714  1.0000
  P   P2        1.0  0.94714  0.55286  0.55286  1.0000
  P   P3        1.0  0.69714  0.30286  0.30286  1.0000
  P   P4        1.0  0.30286  0.69714  0.69714  1.0000
