data_image0
_chemical_formula_structural       Ga4P4
_chemical_formula_sum              "Ga4 P4"
_cell_length_a       5.77086
_cell_length_b       5.77086
_cell_length_c       5.77086
_cell_angle_alpha    132.363
_cell_angle_beta     132.363
_cell_angle_gamma    69.6564

_space_group_name_H-M_alt    "P 1"
_space_group_IT_number       1

loop_
  _space_group_symop_operation_xyz
  'x, y, z'

loop_
  _atom_site_type_symbol
  _atom_site_label
  _atom_site_symmetry_multiplicity
  _atom_site_fract_x
  _atom_site_fract_y
  _atom_site_fract_z
  _atom_site_occupancy
  Ga  Ga1       1.0  0.74015  0.74015  0.00000  1.0000
  Ga  Ga2       1.0  0.25985  0.25985  0.00000  1.0000
  Ga  Ga3       1.0  0.00000  0.50000  0.50000  1.0000
  Ga  Ga4       1.0  0.50000  0.00000  0.50000  1.0000
  P   P1        1.0  0.11485  0.63444  0.00000  1.0000
  P   P2        1.0  0.63444  0.11485  0.00000  1.0000
  P   P3        1.0  0.88515  0.88515  0.51959  1.0000
  P   P4        1.0  0.36556  0.36556  0.48041  1.0000
