data_image0
_chemical_formula_structural       Ga3P3
_chemical_formula_sum              "Ga3 P3"
_cell_length_a       5.76712
_cell_length_b       5.76712
_cell_length_c       7.1462
_cell_angle_alpha    71.6725
_cell_angle_beta     71.6725
_cell_angle_gamma    32.4246

_space_group_name_H-M_alt    "P 1"
_space_group_IT_number       1

loop_
  _space_group_symop_operation_xyz
  'x, y, z'

loop_
  _atom_site_type_symbol
  _atom_site_label
  _atom_site_symmetry_multiplicity
  _atom_site_fract_x
  _atom_site_fract_y
  _atom_site_fract_z
  _atom_site_occupancy
  Ga  Ga1       1.0  0.60588  0.60588  0.28287  1.0000
  Ga  Ga2       1.0  0.33424  0.33424  0.33432  1.0000
  Ga  Ga3       1.0  0.94820  0.94820  0.60686  1.0000
  P   P1        1.0  0.99873  0.99873  0.01467  1.0000
  P   P2        1.0  0.66742  0.66742  0.64813  1.0000
  P   P3        1.0  0.27886  0.27886  0.94648  1.0000
