data_image0
_chemical_formula_structural       Ga6P6
_chemical_formula_sum              "Ga6 P6"
_cell_length_a       5.56419
_cell_length_b       5.60894
_cell_length_c       7.67232
_cell_angle_alpha    90.4888
_cell_angle_beta     107.207
_cell_angle_gamma    100.051

_space_group_name_H-M_alt    "P 1"
_space_group_IT_number       1

loop_
  _space_group_symop_operation_xyz
  'x, y, z'

loop_
  _atom_site_type_symbol
  _atom_site_label
  _atom_site_symmetry_multiplicity
  _atom_site_fract_x
  _atom_site_fract_y
  _atom_site_fract_z
  _atom_site_occupancy
  Ga  Ga1       1.0  0.68327  0.77046  0.03804  1.0000
  Ga  Ga2       1.0  0.71277  0.10861  0.69863  1.0000
  Ga  Ga3       1.0  0.28723  0.89139  0.30137  1.0000
  Ga  Ga4       1.0  0.74440  0.35948  0.35488  1.0000
  Ga  Ga5       1.0  0.25560  0.64052  0.64512  1.0000
  Ga  Ga6       1.0  0.31673  0.22954  0.96196  1.0000
  P   P1        1.0  0.24687  0.38335  0.32406  1.0000
  P   P2        1.0  0.19052  0.13708  0.58030  1.0000
  P   P3        1.0  0.87748  0.32045  0.04609  1.0000
  P   P4        1.0  0.12252  0.67955  0.95391  1.0000
  P   P5        1.0  0.80948  0.86292  0.41970  1.0000
  P   P6        1.0  0.75313  0.61664  0.67594  1.0000
