data_image0
_chemical_formula_structural       Ga8P8
_chemical_formula_sum              "Ga8 P8"
_cell_length_a       2.81533
_cell_length_b       9.11458
_cell_length_c       7.94455
_cell_angle_alpha    71.5445
_cell_angle_beta     110.654
_cell_angle_gamma    89.815

_space_group_name_H-M_alt    "P 1"
_space_group_IT_number       1

loop_
  _space_group_symop_operation_xyz
  'x, y, z'

loop_
  _atom_site_type_symbol
  _atom_site_label
  _atom_site_symmetry_multiplicity
  _atom_site_fract_x
  _atom_site_fract_y
  _atom_site_fract_z
  _atom_site_occupancy
  Ga  Ga1       1.0  0.32567  0.11417  0.80012  1.0000
  Ga  Ga2       1.0  0.67447  0.13595  0.19961  1.0000
  Ga  Ga3       1.0  0.32495  0.36414  0.30032  1.0000
  Ga  Ga4       1.0  0.67491  0.38575  0.69995  1.0000
  Ga  Ga5       1.0  0.32567  0.61416  0.80012  1.0000
  Ga  Ga6       1.0  0.67447  0.63594  0.19961  1.0000
  Ga  Ga7       1.0  0.32495  0.86413  0.30032  1.0000
  Ga  Ga8       1.0  0.67491  0.88575  0.69995  1.0000
  P   P1        1.0  0.38863  0.33137  0.91594  1.0000
  P   P2        1.0  0.61089  0.41972  0.08437  1.0000
  P   P3        1.0  0.38853  0.08033  0.41561  1.0000
  P   P4        1.0  0.61196  0.16858  0.58408  1.0000
  P   P5        1.0  0.38863  0.83137  0.91594  1.0000
  P   P6        1.0  0.61089  0.91972  0.08437  1.0000
  P   P7        1.0  0.38853  0.58032  0.41561  1.0000
  P   P8        1.0  0.61196  0.66858  0.58408  1.0000
