data_image0
_chemical_formula_structural       Ga3P3
_chemical_formula_sum              "Ga3 P3"
_cell_length_a       7.51931
_cell_length_b       7.51931
_cell_length_c       7.94869
_cell_angle_alpha    77.3628
_cell_angle_beta     77.3628
_cell_angle_gamma    30.8474

_space_group_name_H-M_alt    "P 1"
_space_group_IT_number       1

loop_
  _space_group_symop_operation_xyz
  'x, y, z'

loop_
  _atom_site_type_symbol
  _atom_site_label
  _atom_site_symmetry_multiplicity
  _atom_site_fract_x
  _atom_site_fract_y
  _atom_site_fract_z
  _atom_site_occupancy
  Ga  Ga1       1.0  0.60487  0.60487  0.25860  1.0000
  Ga  Ga2       1.0  0.32674  0.32674  0.38506  1.0000
  Ga  Ga3       1.0  0.29769  0.29769  0.88634  1.0000
  P   P1        1.0  0.99514  0.99514  0.99035  1.0000
  P   P2        1.0  0.97855  0.97855  0.60496  1.0000
  P   P3        1.0  0.63035  0.63035  0.70802  1.0000
