data_image0
_chemical_formula_structural       Ga4P4
_chemical_formula_sum              "Ga4 P4"
_cell_length_a       7.97288
_cell_length_b       4.54875
_cell_length_c       5.92302
_cell_angle_alpha    90
_cell_angle_beta     109.665
_cell_angle_gamma    90

_space_group_name_H-M_alt    "P 1"
_space_group_IT_number       1

loop_
  _space_group_symop_operation_xyz
  'x, y, z'

loop_
  _atom_site_type_symbol
  _atom_site_label
  _atom_site_symmetry_multiplicity
  _atom_site_fract_x
  _atom_site_fract_y
  _atom_site_fract_z
  _atom_site_occupancy
  Ga  Ga1       1.0  0.29058  0.25000  0.16235  1.0000
  Ga  Ga2       1.0  0.20941  0.75000  0.83765  1.0000
  Ga  Ga3       1.0  0.79058  0.25000  0.16235  1.0000
  Ga  Ga4       1.0  0.70942  0.75000  0.83765  1.0000
  P   P1        1.0  0.42987  0.25000  0.71949  1.0000
  P   P2        1.0  0.07013  0.75000  0.28051  1.0000
  P   P3        1.0  0.92987  0.25000  0.71949  1.0000
  P   P4        1.0  0.57013  0.75000  0.28051  1.0000
