data_image0
_chemical_formula_structural       Ga2P2
_chemical_formula_sum              "Ga2 P2"
_cell_length_a       4.31959
_cell_length_b       4.32144
_cell_length_c       7.13297
_cell_angle_alpha    90
_cell_angle_beta     90
_cell_angle_gamma    119.986

_space_group_name_H-M_alt    "P 1"
_space_group_IT_number       1

loop_
  _space_group_symop_operation_xyz
  'x, y, z'

loop_
  _atom_site_type_symbol
  _atom_site_label
  _atom_site_symmetry_multiplicity
  _atom_site_fract_x
  _atom_site_fract_y
  _atom_site_fract_z
  _atom_site_occupancy
  Ga  Ga1       1.0  0.66680  0.33359  0.87422  1.0000
  Ga  Ga2       1.0  0.33320  0.66641  0.37422  1.0000
  P   P1        1.0  0.66641  0.33283  0.50068  1.0000
  P   P2        1.0  0.33359  0.66717  0.00068  1.0000
