data_image0
_chemical_formula_structural       Ga6P6
_chemical_formula_sum              "Ga6 P6"
_cell_length_a       4.9997
_cell_length_b       5.03169
_cell_length_c       9.20659
_cell_angle_alpha    94.486
_cell_angle_beta     95.069
_cell_angle_gamma    107.491

_space_group_name_H-M_alt    "P 1"
_space_group_IT_number       1

loop_
  _space_group_symop_operation_xyz
  'x, y, z'

loop_
  _atom_site_type_symbol
  _atom_site_label
  _atom_site_symmetry_multiplicity
  _atom_site_fract_x
  _atom_site_fract_y
  _atom_site_fract_z
  _atom_site_occupancy
  Ga  Ga1       1.0  0.46391  0.74546  0.83187  1.0000
  Ga  Ga2       1.0  0.10908  0.34043  0.16719  1.0000
  Ga  Ga3       1.0  0.17297  0.89679  0.37065  1.0000
  Ga  Ga4       1.0  0.90247  0.67882  0.62984  1.0000
  Ga  Ga5       1.0  0.59538  0.86044  0.16670  1.0000
  Ga  Ga6       1.0  0.99784  0.21946  0.83297  1.0000
  P   P1        1.0  0.46191  0.20370  0.68698  1.0000
  P   P2        1.0  0.79588  0.11867  0.50039  1.0000
  P   P3        1.0  0.57768  0.32817  0.99752  1.0000
  P   P4        1.0  0.00851  0.75945  0.99875  1.0000
  P   P5        1.0  0.28184  0.45979  0.50142  1.0000
  P   P6        1.0  0.63236  0.38875  0.31560  1.0000
