data_image0
_chemical_formula_structural       Ga4P4
_chemical_formula_sum              "Ga4 P4"
_cell_length_a       4.52846
_cell_length_b       6.84087
_cell_length_c       9.51444
_cell_angle_alpha    90
_cell_angle_beta     90
_cell_angle_gamma    90

_space_group_name_H-M_alt    "P 1"
_space_group_IT_number       1

loop_
  _space_group_symop_operation_xyz
  'x, y, z'

loop_
  _atom_site_type_symbol
  _atom_site_label
  _atom_site_symmetry_multiplicity
  _atom_site_fract_x
  _atom_site_fract_y
  _atom_site_fract_z
  _atom_site_occupancy
  Ga  Ga1       1.0  0.25000  0.56883  0.02288  1.0000
  Ga  Ga2       1.0  0.25000  0.93117  0.52288  1.0000
  Ga  Ga3       1.0  0.75000  0.43117  0.97712  1.0000
  Ga  Ga4       1.0  0.75000  0.06883  0.47712  1.0000
  P   P1        1.0  0.25000  0.38058  0.67723  1.0000
  P   P2        1.0  0.25000  0.11942  0.17723  1.0000
  P   P3        1.0  0.75000  0.61942  0.32277  1.0000
  P   P4        1.0  0.75000  0.88058  0.82277  1.0000
