data_image0
_chemical_formula_structural       Ga6P6
_chemical_formula_sum              "Ga6 P6"
_cell_length_a       6.42321
_cell_length_b       6.42321
_cell_length_c       9.00579
_cell_angle_alpha    76.3654
_cell_angle_beta     76.3654
_cell_angle_gamma    38.9755

_space_group_name_H-M_alt    "P 1"
_space_group_IT_number       1

loop_
  _space_group_symop_operation_xyz
  'x, y, z'

loop_
  _atom_site_type_symbol
  _atom_site_label
  _atom_site_symmetry_multiplicity
  _atom_site_fract_x
  _atom_site_fract_y
  _atom_site_fract_z
  _atom_site_occupancy
  Ga  Ga1       1.0  0.35613  0.35613  0.50803  1.0000
  Ga  Ga2       1.0  0.25181  0.25181  0.16606  1.0000
  Ga  Ga3       1.0  0.46989  0.46989  0.83193  1.0000
  Ga  Ga4       1.0  0.74819  0.74819  0.83393  1.0000
  Ga  Ga5       1.0  0.53011  0.53011  0.16808  1.0000
  Ga  Ga6       1.0  0.64387  0.64387  0.49197  1.0000
  P   P1        1.0  0.95868  0.95868  0.63528  1.0000
  P   P2        1.0  0.89462  0.89462  0.02756  1.0000
  P   P3        1.0  0.04132  0.04132  0.36472  1.0000
  P   P4        1.0  0.85610  0.85610  0.30168  1.0000
  P   P5        1.0  0.14390  0.14390  0.69832  1.0000
  P   P6        1.0  0.10538  0.10538  0.97244  1.0000
