data_image0
_chemical_formula_structural       Ga3P3
_chemical_formula_sum              "Ga3 P3"
_cell_length_a       5.95895
_cell_length_b       5.95895
_cell_length_c       8.30882
_cell_angle_alpha    75.993
_cell_angle_beta     75.993
_cell_angle_gamma    31.8788

_space_group_name_H-M_alt    "P 1"
_space_group_IT_number       1

loop_
  _space_group_symop_operation_xyz
  'x, y, z'

loop_
  _atom_site_type_symbol
  _atom_site_label
  _atom_site_symmetry_multiplicity
  _atom_site_fract_x
  _atom_site_fract_y
  _atom_site_fract_z
  _atom_site_occupancy
  Ga  Ga1       1.0  0.66206  0.66205  0.67896  1.0000
  Ga  Ga2       1.0  0.00125  0.00125  0.38196  1.0000
  Ga  Ga3       1.0  0.78058  0.78058  0.03592  1.0000
  P   P1        1.0  0.05791  0.05791  0.00421  1.0000
  P   P2        1.0  0.39682  0.39682  0.70722  1.0000
  P   P3        1.0  0.26805  0.26805  0.35839  1.0000
