data_image0
_chemical_formula_structural       Ga4P4
_chemical_formula_sum              "Ga4 P4"
_cell_length_a       4.10985
_cell_length_b       5.44989
_cell_length_c       4.46822
_cell_angle_alpha    90
_cell_angle_beta     90.0001
_cell_angle_gamma    91.5443

_space_group_name_H-M_alt    "P 1"
_space_group_IT_number       1

loop_
  _space_group_symop_operation_xyz
  'x, y, z'

loop_
  _atom_site_type_symbol
  _atom_site_label
  _atom_site_symmetry_multiplicity
  _atom_site_fract_x
  _atom_site_fract_y
  _atom_site_fract_z
  _atom_site_occupancy
  Ga  Ga1       1.0  0.40004  0.90006  0.50003  1.0000
  Ga  Ga2       1.0  0.40004  0.40006  0.99998  1.0000
  Ga  Ga3       1.0  0.90005  0.90005  0.00002  1.0000
  Ga  Ga4       1.0  0.90005  0.40006  0.49998  1.0000
  P   P1        1.0  0.65001  0.14994  0.24273  1.0000
  P   P2        1.0  0.15001  0.14994  0.74273  1.0000
  P   P3        1.0  0.65001  0.64994  0.25727  1.0000
  P   P4        1.0  0.15001  0.64994  0.75727  1.0000
