data_image0
_chemical_formula_structural       Ga4P4
_chemical_formula_sum              "Ga4 P4"
_cell_length_a       7.91598
_cell_length_b       4.55479
_cell_length_c       5.81643
_cell_angle_alpha    90
_cell_angle_beta     109.892
_cell_angle_gamma    90

_space_group_name_H-M_alt    "P 1"
_space_group_IT_number       1

loop_
  _space_group_symop_operation_xyz
  'x, y, z'

loop_
  _atom_site_type_symbol
  _atom_site_label
  _atom_site_symmetry_multiplicity
  _atom_site_fract_x
  _atom_site_fract_y
  _atom_site_fract_z
  _atom_site_occupancy
  Ga  Ga1       1.0  0.06865  0.75000  0.27462  1.0000
  Ga  Ga2       1.0  0.43134  0.25000  0.72538  1.0000
  Ga  Ga3       1.0  0.56865  0.75000  0.27462  1.0000
  Ga  Ga4       1.0  0.93134  0.25000  0.72538  1.0000
  P   P1        1.0  0.20632  0.75000  0.82528  1.0000
  P   P2        1.0  0.29368  0.25000  0.17472  1.0000
  P   P3        1.0  0.70632  0.75000  0.82528  1.0000
  P   P4        1.0  0.79368  0.25000  0.17472  1.0000
