data_image0
_chemical_formula_structural       Ga2P2
_chemical_formula_sum              "Ga2 P2"
_cell_length_a       3.69428
_cell_length_b       3.74225
_cell_length_c       6.52893
_cell_angle_alpha    93.017
_cell_angle_beta     56.3714
_cell_angle_gamma    95.4224

_space_group_name_H-M_alt    "P 1"
_space_group_IT_number       1

loop_
  _space_group_symop_operation_xyz
  'x, y, z'

loop_
  _atom_site_type_symbol
  _atom_site_label
  _atom_site_symmetry_multiplicity
  _atom_site_fract_x
  _atom_site_fract_y
  _atom_site_fract_z
  _atom_site_occupancy
  Ga  Ga1       1.0  0.23871  0.05041  0.45432  1.0000
  Ga  Ga2       1.0  0.10960  0.70135  0.95569  1.0000
  P   P1        1.0  0.61086  0.09599  0.03880  1.0000
  P   P2        1.0  0.56074  0.64838  0.54026  1.0000
