data_image0
_chemical_formula_structural       Ga4P4
_chemical_formula_sum              "Ga4 P4"
_cell_length_a       3.98593
_cell_length_b       9.31668
_cell_length_c       5.866
_cell_angle_alpha    90
_cell_angle_beta     70.1384
_cell_angle_gamma    90

_space_group_name_H-M_alt    "P 1"
_space_group_IT_number       1

loop_
  _space_group_symop_operation_xyz
  'x, y, z'

loop_
  _atom_site_type_symbol
  _atom_site_label
  _atom_site_symmetry_multiplicity
  _atom_site_fract_x
  _atom_site_fract_y
  _atom_site_fract_z
  _atom_site_occupancy
  Ga  Ga1       1.0  0.13518  0.37500  0.72965  1.0000
  Ga  Ga2       1.0  0.86482  0.12500  0.27035  1.0000
  Ga  Ga3       1.0  0.13518  0.87500  0.72965  1.0000
  Ga  Ga4       1.0  0.86482  0.62500  0.27035  1.0000
  P   P1        1.0  0.41279  0.37500  0.17442  1.0000
  P   P2        1.0  0.58721  0.12500  0.82558  1.0000
  P   P3        1.0  0.41279  0.87500  0.17442  1.0000
  P   P4        1.0  0.58721  0.62500  0.82558  1.0000
