data_image0
_chemical_formula_structural       Ga4P4
_chemical_formula_sum              "Ga4 P4"
_cell_length_a       5.18964
_cell_length_b       6.64467
_cell_length_c       6.69343
_cell_angle_alpha    81.7781
_cell_angle_beta     67.6384
_cell_angle_gamma    68.4508

_space_group_name_H-M_alt    "P 1"
_space_group_IT_number       1

loop_
  _space_group_symop_operation_xyz
  'x, y, z'

loop_
  _atom_site_type_symbol
  _atom_site_label
  _atom_site_symmetry_multiplicity
  _atom_site_fract_x
  _atom_site_fract_y
  _atom_site_fract_z
  _atom_site_occupancy
  Ga  Ga1       1.0  0.23281  0.66162  0.37592  1.0000
  Ga  Ga2       1.0  0.39069  0.87499  0.83972  1.0000
  Ga  Ga3       1.0  0.60931  0.12501  0.16028  1.0000
  Ga  Ga4       1.0  0.76719  0.33838  0.62408  1.0000
  P   P1        1.0  0.91918  0.91948  0.74089  1.0000
  P   P2        1.0  0.08082  0.08052  0.25911  1.0000
  P   P3        1.0  0.33557  0.24001  0.57868  1.0000
  P   P4        1.0  0.66443  0.75999  0.42132  1.0000
