data_image0
_chemical_formula_structural       Ga4P4
_chemical_formula_sum              "Ga4 P4"
_cell_length_a       3.69428
_cell_length_b       7.4845
_cell_length_c       6.52893
_cell_angle_alpha    93.017
_cell_angle_beta     56.3714
_cell_angle_gamma    95.4224

_space_group_name_H-M_alt    "P 1"
_space_group_IT_number       1

loop_
  _space_group_symop_operation_xyz
  'x, y, z'

loop_
  _atom_site_type_symbol
  _atom_site_label
  _atom_site_symmetry_multiplicity
  _atom_site_fract_x
  _atom_site_fract_y
  _atom_site_fract_z
  _atom_site_occupancy
  Ga  Ga1       1.0  0.23871  0.02521  0.45432  1.0000
  Ga  Ga2       1.0  0.10960  0.35068  0.95569  1.0000
  Ga  Ga3       1.0  0.23871  0.52521  0.45432  1.0000
  Ga  Ga4       1.0  0.10960  0.85068  0.95569  1.0000
  P   P1        1.0  0.61086  0.04800  0.03880  1.0000
  P   P2        1.0  0.56074  0.32419  0.54026  1.0000
  P   P3        1.0  0.61086  0.54800  0.03880  1.0000
  P   P4        1.0  0.56074  0.82419  0.54026  1.0000
