data_image0
_chemical_formula_structural       Ga4P4
_chemical_formula_sum              "Ga4 P4"
_cell_length_a       4.10366
_cell_length_b       5.45059
_cell_length_c       7.1687
_cell_angle_alpha    90.0012
_cell_angle_beta     89.9988
_cell_angle_gamma    90.0007

_space_group_name_H-M_alt    "P 1"
_space_group_IT_number       1

loop_
  _space_group_symop_operation_xyz
  'x, y, z'

loop_
  _atom_site_type_symbol
  _atom_site_label
  _atom_site_symmetry_multiplicity
  _atom_site_fract_x
  _atom_site_fract_y
  _atom_site_fract_z
  _atom_site_occupancy
  Ga  Ga1       1.0  0.74999  0.86775  0.81963  1.0000
  Ga  Ga2       1.0  0.24999  0.36778  0.68030  1.0000
  Ga  Ga3       1.0  0.25001  0.13225  0.18037  1.0000
  Ga  Ga4       1.0  0.75001  0.63222  0.31970  1.0000
  P   P1        1.0  0.75001  0.38044  0.96444  1.0000
  P   P2        1.0  0.24999  0.88039  0.53546  1.0000
  P   P3        1.0  0.24999  0.61956  0.03556  1.0000
  P   P4        1.0  0.75001  0.11961  0.46454  1.0000
