data_image0
_chemical_formula_structural       Ga4P4
_chemical_formula_sum              "Ga4 P4"
_cell_length_a       3.10229
_cell_length_b       5.3757
_cell_length_c       5.44382
_cell_angle_alpha    110.557
_cell_angle_beta     91.097
_cell_angle_gamma    89.9466

_space_group_name_H-M_alt    "P 1"
_space_group_IT_number       1

loop_
  _space_group_symop_operation_xyz
  'x, y, z'

loop_
  _atom_site_type_symbol
  _atom_site_label
  _atom_site_symmetry_multiplicity
  _atom_site_fract_x
  _atom_site_fract_y
  _atom_site_fract_z
  _atom_site_occupancy
  Ga  Ga1       1.0  0.96829  0.25168  0.74207  1.0000
  Ga  Ga2       1.0  0.46831  0.25167  0.24207  1.0000
  Ga  Ga3       1.0  0.03171  0.74832  0.25793  1.0000
  Ga  Ga4       1.0  0.53169  0.74833  0.75793  1.0000
  P   P1        1.0  0.50000  0.00000  0.50000  1.0000
  P   P2        1.0  0.00000  0.50000  0.50000  1.0000
  P   P3        1.0  0.00000  0.00000  0.00000  1.0000
  P   P4        1.0  0.50000  0.50000  0.00000  1.0000
