data_image0
_chemical_formula_structural       Ga4P4
_chemical_formula_sum              "Ga4 P4"
_cell_length_a       4.51434
_cell_length_b       5.55476
_cell_length_c       7.05075
_cell_angle_alpha    90
_cell_angle_beta     90
_cell_angle_gamma    90

_space_group_name_H-M_alt    "P 1"
_space_group_IT_number       1

loop_
  _space_group_symop_operation_xyz
  'x, y, z'

loop_
  _atom_site_type_symbol
  _atom_site_label
  _atom_site_symmetry_multiplicity
  _atom_site_fract_x
  _atom_site_fract_y
  _atom_site_fract_z
  _atom_site_occupancy
  Ga  Ga1       1.0  0.25000  0.84516  0.54349  1.0000
  Ga  Ga2       1.0  0.25000  0.65484  0.04349  1.0000
  Ga  Ga3       1.0  0.75000  0.15484  0.45651  1.0000
  Ga  Ga4       1.0  0.75000  0.34516  0.95651  1.0000
  P   P1        1.0  0.25000  0.35991  0.68221  1.0000
  P   P2        1.0  0.25000  0.14009  0.18221  1.0000
  P   P3        1.0  0.75000  0.64009  0.31779  1.0000
  P   P4        1.0  0.75000  0.85991  0.81779  1.0000
