data_image0
_chemical_formula_structural       Ga3P3
_chemical_formula_sum              "Ga3 P3"
_cell_length_a       5.83265
_cell_length_b       5.83265
_cell_length_c       7.42096
_cell_angle_alpha    73.7627
_cell_angle_beta     73.7627
_cell_angle_gamma    31.3067

_space_group_name_H-M_alt    "P 1"
_space_group_IT_number       1

loop_
  _space_group_symop_operation_xyz
  'x, y, z'

loop_
  _atom_site_type_symbol
  _atom_site_label
  _atom_site_symmetry_multiplicity
  _atom_site_fract_x
  _atom_site_fract_y
  _atom_site_fract_z
  _atom_site_occupancy
  Ga  Ga1       1.0  0.99750  0.99750  0.00887  1.0000
  Ga  Ga2       1.0  0.66682  0.66682  0.66088  1.0000
  Ga  Ga3       1.0  0.27891  0.27891  0.94348  1.0000
  P   P1        1.0  0.61151  0.61151  0.27705  1.0000
  P   P2        1.0  0.33277  0.33276  0.33463  1.0000
  P   P3        1.0  0.94582  0.94582  0.60842  1.0000
