data_image0
_chemical_formula_structural       Ga8P8
_chemical_formula_sum              "Ga8 P8"
_cell_length_a       6.1986
_cell_length_b       6.62095
_cell_length_c       6.37632
_cell_angle_alpha    61.4093
_cell_angle_beta     88.414
_cell_angle_gamma    113.525

_space_group_name_H-M_alt    "P 1"
_space_group_IT_number       1

loop_
  _space_group_symop_operation_xyz
  'x, y, z'

loop_
  _atom_site_type_symbol
  _atom_site_label
  _atom_site_symmetry_multiplicity
  _atom_site_fract_x
  _atom_site_fract_y
  _atom_site_fract_z
  _atom_site_occupancy
  Ga  Ga1       1.0  0.49765  0.39292  0.14601  1.0000
  Ga  Ga2       1.0  0.24749  0.89260  0.14635  1.0000
  Ga  Ga3       1.0  0.35226  0.10686  0.65397  1.0000
  Ga  Ga4       1.0  0.10238  0.60717  0.65363  1.0000
  Ga  Ga5       1.0  0.99765  0.39292  0.14601  1.0000
  Ga  Ga6       1.0  0.74749  0.89260  0.14635  1.0000
  Ga  Ga7       1.0  0.85226  0.10686  0.65397  1.0000
  Ga  Ga8       1.0  0.60238  0.60717  0.65363  1.0000
  P   P1        1.0  0.30025  0.50052  0.89990  1.0000
  P   P2        1.0  0.04987  0.49977  0.40003  1.0000
  P   P3        1.0  0.05012  0.00019  0.90023  1.0000
  P   P4        1.0  0.29992  0.00007  0.39989  1.0000
  P   P5        1.0  0.80025  0.50052  0.89990  1.0000
  P   P6        1.0  0.54988  0.49977  0.40003  1.0000
  P   P7        1.0  0.55012  0.00019  0.90023  1.0000
  P   P8        1.0  0.79992  0.00007  0.39989  1.0000
