data_image0
_chemical_formula_structural       Ga3P3
_chemical_formula_sum              "Ga3 P3"
_cell_length_a       5.84766
_cell_length_b       5.84766
_cell_length_c       5.84766
_cell_angle_alpha    116.513
_cell_angle_beta     116.513
_cell_angle_gamma    116.513

_space_group_name_H-M_alt    "P 1"
_space_group_IT_number       1

loop_
  _space_group_symop_operation_xyz
  'x, y, z'

loop_
  _atom_site_type_symbol
  _atom_site_label
  _atom_site_symmetry_multiplicity
  _atom_site_fract_x
  _atom_site_fract_y
  _atom_site_fract_z
  _atom_site_occupancy
  Ga  Ga1       1.0  0.00720  0.26255  0.00720  1.0000
  Ga  Ga2       1.0  0.00720  0.00720  0.26255  1.0000
  Ga  Ga3       1.0  0.26255  0.00720  0.00720  1.0000
  P   P1        1.0  0.72459  0.38585  0.72459  1.0000
  P   P2        1.0  0.72459  0.72459  0.38585  1.0000
  P   P3        1.0  0.38585  0.72459  0.72459  1.0000
