data_image0
_chemical_formula_structural       Ga4P4
_chemical_formula_sum              "Ga4 P4"
_cell_length_a       5.59978
_cell_length_b       4.17109
_cell_length_c       4.67098
_cell_angle_alpha    89.8905
_cell_angle_beta     95.5513
_cell_angle_gamma    89.982

_space_group_name_H-M_alt    "P 1"
_space_group_IT_number       1

loop_
  _space_group_symop_operation_xyz
  'x, y, z'

loop_
  _atom_site_type_symbol
  _atom_site_label
  _atom_site_symmetry_multiplicity
  _atom_site_fract_x
  _atom_site_fract_y
  _atom_site_fract_z
  _atom_site_occupancy
  Ga  Ga1       1.0  0.01048  0.75054  0.17805  1.0000
  Ga  Ga2       1.0  0.48952  0.24946  0.82195  1.0000
  Ga  Ga3       1.0  0.51048  0.75054  0.17805  1.0000
  Ga  Ga4       1.0  0.98952  0.24946  0.82195  1.0000
  P   P1        1.0  0.28230  0.25045  0.28832  1.0000
  P   P2        1.0  0.21769  0.74955  0.71168  1.0000
  P   P3        1.0  0.78230  0.25045  0.28832  1.0000
  P   P4        1.0  0.71769  0.74955  0.71168  1.0000
