data_image0
_chemical_formula_structural       Ga4P4
_chemical_formula_sum              "Ga4 P4"
_cell_length_a       4.40127
_cell_length_b       4.71254
_cell_length_c       6.55707
_cell_angle_alpha    90
_cell_angle_beta     90
_cell_angle_gamma    90

_space_group_name_H-M_alt    "P 1"
_space_group_IT_number       1

loop_
  _space_group_symop_operation_xyz
  'x, y, z'

loop_
  _atom_site_type_symbol
  _atom_site_label
  _atom_site_symmetry_multiplicity
  _atom_site_fract_x
  _atom_site_fract_y
  _atom_site_fract_z
  _atom_site_occupancy
  Ga  Ga1       1.0  0.25000  0.02584  0.09627  1.0000
  Ga  Ga2       1.0  0.25000  0.47416  0.59627  1.0000
  Ga  Ga3       1.0  0.75000  0.97416  0.90373  1.0000
  Ga  Ga4       1.0  0.75000  0.52584  0.40373  1.0000
  P   P1        1.0  0.25000  0.52149  0.23119  1.0000
  P   P2        1.0  0.25000  0.97851  0.73119  1.0000
  P   P3        1.0  0.75000  0.47851  0.76881  1.0000
  P   P4        1.0  0.75000  0.02149  0.26881  1.0000
