data_image0
_chemical_formula_structural       Ga3P3
_chemical_formula_sum              "Ga3 P3"
_cell_length_a       5.2649
_cell_length_b       5.2649
_cell_length_c       5.91146
_cell_angle_alpha    60.3768
_cell_angle_beta     60.3768
_cell_angle_gamma    59.5353

_space_group_name_H-M_alt    "P 1"
_space_group_IT_number       1

loop_
  _space_group_symop_operation_xyz
  'x, y, z'

loop_
  _atom_site_type_symbol
  _atom_site_label
  _atom_site_symmetry_multiplicity
  _atom_site_fract_x
  _atom_site_fract_y
  _atom_site_fract_z
  _atom_site_occupancy
  Ga  Ga1       1.0  0.33530  0.66470  0.00000  1.0000
  Ga  Ga2       1.0  0.16248  0.16428  0.50363  1.0000
  Ga  Ga3       1.0  0.83572  0.83753  0.49637  1.0000
  P   P1        1.0  0.65860  0.99449  0.00707  1.0000
  P   P2        1.0  0.00551  0.34141  0.99293  1.0000
  P   P3        1.0  0.50241  0.49759  0.50000  1.0000
