data_image0
_chemical_formula_structural       Ga4P4
_chemical_formula_sum              "Ga4 P4"
_cell_length_a       6.48309
_cell_length_b       6.48309
_cell_length_c       4.83714
_cell_angle_alpha    90
_cell_angle_beta     90
_cell_angle_gamma    155.299

_space_group_name_H-M_alt    "P 1"
_space_group_IT_number       1

loop_
  _space_group_symop_operation_xyz
  'x, y, z'

loop_
  _atom_site_type_symbol
  _atom_site_label
  _atom_site_symmetry_multiplicity
  _atom_site_fract_x
  _atom_site_fract_y
  _atom_site_fract_z
  _atom_site_occupancy
  Ga  Ga1       1.0  0.86206  0.13794  0.50377  1.0000
  Ga  Ga2       1.0  0.13794  0.86206  0.00377  1.0000
  Ga  Ga3       1.0  0.77064  0.22936  0.67297  1.0000
  Ga  Ga4       1.0  0.22936  0.77064  0.17297  1.0000
  P   P1        1.0  0.46278  0.53722  0.67673  1.0000
  P   P2        1.0  0.53722  0.46278  0.17673  1.0000
  P   P3        1.0  0.15465  0.84535  0.57653  1.0000
  P   P4        1.0  0.84535  0.15465  0.07653  1.0000
