data_image0
_chemical_formula_structural       Ga4P4
_chemical_formula_sum              "Ga4 P4"
_cell_length_a       4.725
_cell_length_b       4.725
_cell_length_c       4.725
_cell_angle_alpha    90
_cell_angle_beta     90
_cell_angle_gamma    90

_space_group_name_H-M_alt    "P 1"
_space_group_IT_number       1

loop_
  _space_group_symop_operation_xyz
  'x, y, z'

loop_
  _atom_site_type_symbol
  _atom_site_label
  _atom_site_symmetry_multiplicity
  _atom_site_fract_x
  _atom_site_fract_y
  _atom_site_fract_z
  _atom_site_occupancy
  Ga  Ga1       1.0  0.63711  0.13711  0.36289  1.0000
  Ga  Ga2       1.0  0.13711  0.36289  0.63711  1.0000
  Ga  Ga3       1.0  0.36289  0.63711  0.13711  1.0000
  Ga  Ga4       1.0  0.86289  0.86289  0.86289  1.0000
  P   P1        1.0  0.34236  0.84236  0.65764  1.0000
  P   P2        1.0  0.84236  0.65764  0.34236  1.0000
  P   P3        1.0  0.65764  0.34236  0.84236  1.0000
  P   P4        1.0  0.15764  0.15764  0.15764  1.0000
