data_image0
_chemical_formula_structural       Ga4P4
_chemical_formula_sum              "Ga4 P4"
_cell_length_a       6.93959
_cell_length_b       4.04641
_cell_length_c       8.76981
_cell_angle_alpha    90
_cell_angle_beta     90
_cell_angle_gamma    121.221

_space_group_name_H-M_alt    "P 1"
_space_group_IT_number       1

loop_
  _space_group_symop_operation_xyz
  'x, y, z'

loop_
  _atom_site_type_symbol
  _atom_site_label
  _atom_site_symmetry_multiplicity
  _atom_site_fract_x
  _atom_site_fract_y
  _atom_site_fract_z
  _atom_site_occupancy
  Ga  Ga1       1.0  0.27079  0.02196  0.12761  1.0000
  Ga  Ga2       1.0  0.72921  0.97804  0.87239  1.0000
  Ga  Ga3       1.0  0.22921  0.97804  0.62761  1.0000
  Ga  Ga4       1.0  0.77079  0.02196  0.37239  1.0000
  P   P1        1.0  0.26860  0.51630  0.37817  1.0000
  P   P2        1.0  0.73140  0.48370  0.62183  1.0000
  P   P3        1.0  0.23140  0.48370  0.87817  1.0000
  P   P4        1.0  0.76860  0.51630  0.12183  1.0000
