data_image0
_chemical_formula_structural       Ga3P3
_chemical_formula_sum              "Ga3 P3"
_cell_length_a       8.94038
_cell_length_b       8.94038
_cell_length_c       5.49304
_cell_angle_alpha    90
_cell_angle_beta     90
_cell_angle_gamma    157.615

_space_group_name_H-M_alt    "P 1"
_space_group_IT_number       1

loop_
  _space_group_symop_operation_xyz
  'x, y, z'

loop_
  _atom_site_type_symbol
  _atom_site_label
  _atom_site_symmetry_multiplicity
  _atom_site_fract_x
  _atom_site_fract_y
  _atom_site_fract_z
  _atom_site_occupancy
  Ga  Ga1       1.0  0.33180  0.66820  0.00000  1.0000
  Ga  Ga2       1.0  0.10863  0.89137  0.50000  1.0000
  Ga  Ga3       1.0  0.44893  0.55107  0.50000  1.0000
  P   P1        1.0  0.98989  0.01011  0.00000  1.0000
  P   P2        1.0  0.66582  0.33418  0.00000  1.0000
  P   P3        1.0  0.78827  0.21173  0.50000  1.0000
