data_image0
_chemical_formula_structural       Ga3P3
_chemical_formula_sum              "Ga3 P3"
_cell_length_a       7.09414
_cell_length_b       7.09414
_cell_length_c       8.05084
_cell_angle_alpha    75.7877
_cell_angle_beta     75.7877
_cell_angle_gamma    29.2623

_space_group_name_H-M_alt    "P 1"
_space_group_IT_number       1

loop_
  _space_group_symop_operation_xyz
  'x, y, z'

loop_
  _atom_site_type_symbol
  _atom_site_label
  _atom_site_symmetry_multiplicity
  _atom_site_fract_x
  _atom_site_fract_y
  _atom_site_fract_z
  _atom_site_occupancy
  Ga  Ga1       1.0  0.60272  0.60272  0.27636  1.0000
  Ga  Ga2       1.0  0.33418  0.33418  0.36005  1.0000
  Ga  Ga3       1.0  0.28801  0.28801  0.91173  1.0000
  P   P1        1.0  0.99987  0.99987  0.99134  1.0000
  P   P2        1.0  0.95906  0.95906  0.61553  1.0000
  P   P3        1.0  0.64949  0.64949  0.67833  1.0000
