data_image0
_chemical_formula_structural       Ga4P4
_chemical_formula_sum              "Ga4 P4"
_cell_length_a       7.25899
_cell_length_b       7.60179
_cell_length_c       7.69028
_cell_angle_alpha    107.808
_cell_angle_beta     103.629
_cell_angle_gamma    91.7286

_space_group_name_H-M_alt    "P 1"
_space_group_IT_number       1

loop_
  _space_group_symop_operation_xyz
  'x, y, z'

loop_
  _atom_site_type_symbol
  _atom_site_label
  _atom_site_symmetry_multiplicity
  _atom_site_fract_x
  _atom_site_fract_y
  _atom_site_fract_z
  _atom_site_occupancy
  Ga  Ga1       1.0  0.75721  0.34052  0.55139  1.0000
  Ga  Ga2       1.0  0.24279  0.65948  0.44861  1.0000
  Ga  Ga3       1.0  0.31213  0.21193  0.86098  1.0000
  Ga  Ga4       1.0  0.68787  0.78807  0.13902  1.0000
  P   P1        1.0  0.81114  0.89539  0.71290  1.0000
  P   P2        1.0  0.18886  0.10461  0.28710  1.0000
  P   P3        1.0  0.13512  0.75270  0.94632  1.0000
  P   P4        1.0  0.86488  0.24730  0.05368  1.0000
