data_image0
_chemical_formula_structural       GaP
_chemical_formula_sum              "Ga1 P1"
_cell_length_a       3.43171
_cell_length_b       3.43396
_cell_length_c       3.44043
_cell_angle_alpha    89.9999
_cell_angle_beta     60.0356
_cell_angle_gamma    59.9782

_space_group_name_H-M_alt    "P 1"
_space_group_IT_number       1

loop_
  _space_group_symop_operation_xyz
  'x, y, z'

loop_
  _atom_site_type_symbol
  _atom_site_label
  _atom_site_symmetry_multiplicity
  _atom_site_fract_x
  _atom_site_fract_y
  _atom_site_fract_z
  _atom_site_occupancy
  Ga  Ga1       1.0  0.00040  0.49980  0.49934  1.0000
  P   P1        1.0  0.49960  0.25020  0.75066  1.0000
