data_image0
_chemical_formula_structural       Ga3P3
_chemical_formula_sum              "Ga3 P3"
_cell_length_a       5.15509
_cell_length_b       5.15509
_cell_length_c       5.51461
_cell_angle_alpha    67.3341
_cell_angle_beta     67.3341
_cell_angle_gamma    59.7613

_space_group_name_H-M_alt    "P 1"
_space_group_IT_number       1

loop_
  _space_group_symop_operation_xyz
  'x, y, z'

loop_
  _atom_site_type_symbol
  _atom_site_label
  _atom_site_symmetry_multiplicity
  _atom_site_fract_x
  _atom_site_fract_y
  _atom_site_fract_z
  _atom_site_occupancy
  Ga  Ga1       1.0  0.34062  0.65938  0.00000  1.0000
  Ga  Ga2       1.0  0.83325  0.83281  0.50473  1.0000
  Ga  Ga3       1.0  0.16719  0.16675  0.49527  1.0000
  P   P1        1.0  0.99192  0.33258  0.01270  1.0000
  P   P2        1.0  0.66742  0.00808  0.98730  1.0000
  P   P3        1.0  0.49959  0.50041  0.50000  1.0000
