data_image0
_chemical_formula_structural       Ga2P2
_chemical_formula_sum              "Ga2 P2"
_cell_length_a       5.96388
_cell_length_b       5.96388
_cell_length_c       5.44658
_cell_angle_alpha    83.9488
_cell_angle_beta     83.9488
_cell_angle_gamma    31.1406

_space_group_name_H-M_alt    "P 1"
_space_group_IT_number       1

loop_
  _space_group_symop_operation_xyz
  'x, y, z'

loop_
  _atom_site_type_symbol
  _atom_site_label
  _atom_site_symmetry_multiplicity
  _atom_site_fract_x
  _atom_site_fract_y
  _atom_site_fract_z
  _atom_site_occupancy
  Ga  Ga1       1.0  0.87796  0.87796  0.78106  1.0000
  Ga  Ga2       1.0  0.12204  0.12204  0.21894  1.0000
  P   P1        1.0  0.62185  0.62185  0.71076  1.0000
  P   P2        1.0  0.37815  0.37815  0.28924  1.0000
