data_image0
_chemical_formula_structural       Ga3P3
_chemical_formula_sum              "Ga3 P3"
_cell_length_a       5.33733
_cell_length_b       5.33733
_cell_length_c       5.83242
_cell_angle_alpha    64.0085
_cell_angle_beta     64.0085
_cell_angle_gamma    60.9528

_space_group_name_H-M_alt    "P 1"
_space_group_IT_number       1

loop_
  _space_group_symop_operation_xyz
  'x, y, z'

loop_
  _atom_site_type_symbol
  _atom_site_label
  _atom_site_symmetry_multiplicity
  _atom_site_fract_x
  _atom_site_fract_y
  _atom_site_fract_z
  _atom_site_occupancy
  Ga  Ga1       1.0  0.33276  0.66724  0.00000  1.0000
  Ga  Ga2       1.0  0.16909  0.16457  0.49857  1.0000
  Ga  Ga3       1.0  0.83543  0.83091  0.50143  1.0000
  P   P1        1.0  0.99304  0.33537  0.00318  1.0000
  P   P2        1.0  0.66463  0.00696  0.99682  1.0000
  P   P3        1.0  0.50506  0.49494  0.50000  1.0000
