data_image0
_chemical_formula_structural       Ga4P4
_chemical_formula_sum              "Ga4 P4"
_cell_length_a       2.82494
_cell_length_b       4.37553
_cell_length_c       6.0671
_cell_angle_alpha    90
_cell_angle_beta     90
_cell_angle_gamma    90

_space_group_name_H-M_alt    "P 1"
_space_group_IT_number       1

loop_
  _space_group_symop_operation_xyz
  'x, y, z'

loop_
  _atom_site_type_symbol
  _atom_site_label
  _atom_site_symmetry_multiplicity
  _atom_site_fract_x
  _atom_site_fract_y
  _atom_site_fract_z
  _atom_site_occupancy
  Ga  Ga1       1.0  0.50987  0.39035  0.49308  1.0000
  Ga  Ga2       1.0  0.99013  0.60965  0.99308  1.0000
  Ga  Ga3       1.0  0.49013  0.89035  0.00692  1.0000
  Ga  Ga4       1.0  0.00987  0.10965  0.50692  1.0000
  P   P1        1.0  0.50919  0.57241  0.63646  1.0000
  P   P2        1.0  0.99081  0.42760  0.13646  1.0000
  P   P3        1.0  0.49081  0.07240  0.86354  1.0000
  P   P4        1.0  0.00919  0.92759  0.36354  1.0000
