data_image0
_chemical_formula_structural       Ga3P3
_chemical_formula_sum              "Ga3 P3"
_cell_length_a       6.59385
_cell_length_b       6.59385
_cell_length_c       7.47599
_cell_angle_alpha    73.2743
_cell_angle_beta     73.2743
_cell_angle_gamma    29.0591

_space_group_name_H-M_alt    "P 1"
_space_group_IT_number       1

loop_
  _space_group_symop_operation_xyz
  'x, y, z'

loop_
  _atom_site_type_symbol
  _atom_site_label
  _atom_site_symmetry_multiplicity
  _atom_site_fract_x
  _atom_site_fract_y
  _atom_site_fract_z
  _atom_site_occupancy
  Ga  Ga1       1.0  0.61479  0.61479  0.26599  1.0000
  Ga  Ga2       1.0  0.33048  0.33048  0.32969  1.0000
  Ga  Ga3       1.0  0.94387  0.94387  0.62865  1.0000
  P   P1        1.0  0.00012  0.00012  0.00401  1.0000
  P   P2        1.0  0.66775  0.66775  0.66305  1.0000
  P   P3        1.0  0.27633  0.27633  0.94193  1.0000
