data_image0
_chemical_formula_structural       Ga4P4
_chemical_formula_sum              "Ga4 P4"
_cell_length_a       4.59568
_cell_length_b       5.48169
_cell_length_c       6.87594
_cell_angle_alpha    90
_cell_angle_beta     90
_cell_angle_gamma    90

_space_group_name_H-M_alt    "P 1"
_space_group_IT_number       1

loop_
  _space_group_symop_operation_xyz
  'x, y, z'

loop_
  _atom_site_type_symbol
  _atom_site_label
  _atom_site_symmetry_multiplicity
  _atom_site_fract_x
  _atom_site_fract_y
  _atom_site_fract_z
  _atom_site_occupancy
  Ga  Ga1       1.0  0.25000  0.35668  0.68351  1.0000
  Ga  Ga2       1.0  0.25000  0.14332  0.18351  1.0000
  Ga  Ga3       1.0  0.75000  0.64332  0.31649  1.0000
  Ga  Ga4       1.0  0.75000  0.85668  0.81649  1.0000
  P   P1        1.0  0.25000  0.84606  0.54080  1.0000
  P   P2        1.0  0.25000  0.65394  0.04080  1.0000
  P   P3        1.0  0.75000  0.15394  0.45920  1.0000
  P   P4        1.0  0.75000  0.34606  0.95920  1.0000
