data_image0
_chemical_formula_structural       Ga4P4
_chemical_formula_sum              "Ga4 P4"
_cell_length_a       4.49808
_cell_length_b       5.50799
_cell_length_c       6.95537
_cell_angle_alpha    90
_cell_angle_beta     90
_cell_angle_gamma    90

_space_group_name_H-M_alt    "P 1"
_space_group_IT_number       1

loop_
  _space_group_symop_operation_xyz
  'x, y, z'

loop_
  _atom_site_type_symbol
  _atom_site_label
  _atom_site_symmetry_multiplicity
  _atom_site_fract_x
  _atom_site_fract_y
  _atom_site_fract_z
  _atom_site_occupancy
  Ga  Ga1       1.0  0.25000  0.84480  0.54339  1.0000
  Ga  Ga2       1.0  0.25000  0.65520  0.04339  1.0000
  Ga  Ga3       1.0  0.75000  0.15520  0.45661  1.0000
  Ga  Ga4       1.0  0.75000  0.34480  0.95661  1.0000
  P   P1        1.0  0.25000  0.35962  0.68204  1.0000
  P   P2        1.0  0.25000  0.14038  0.18204  1.0000
  P   P3        1.0  0.75000  0.64038  0.31796  1.0000
  P   P4        1.0  0.75000  0.85962  0.81796  1.0000
