data_image0
_chemical_formula_structural       Ga3P3
_chemical_formula_sum              "Ga3 P3"
_cell_length_a       7.78261
_cell_length_b       7.78261
_cell_length_c       4.77663
_cell_angle_alpha    90
_cell_angle_beta     90
_cell_angle_gamma    157.43

_space_group_name_H-M_alt    "P 1"
_space_group_IT_number       1

loop_
  _space_group_symop_operation_xyz
  'x, y, z'

loop_
  _atom_site_type_symbol
  _atom_site_label
  _atom_site_symmetry_multiplicity
  _atom_site_fract_x
  _atom_site_fract_y
  _atom_site_fract_z
  _atom_site_occupancy
  Ga  Ga1       1.0  0.00614  0.99386  0.00000  1.0000
  Ga  Ga2       1.0  0.66119  0.33881  0.00000  1.0000
  Ga  Ga3       1.0  0.11024  0.88976  0.50000  1.0000
  P   P1        1.0  0.33362  0.66638  0.00000  1.0000
  P   P2        1.0  0.45549  0.54451  0.50000  1.0000
  P   P3        1.0  0.76665  0.23335  0.50000  1.0000
