data_image0
_chemical_formula_structural       Ga4P4
_chemical_formula_sum              "Ga4 P4"
_cell_length_a       6.75736
_cell_length_b       4.26311
_cell_length_c       5.70375
_cell_angle_alpha    90
_cell_angle_beta     107.228
_cell_angle_gamma    90

_space_group_name_H-M_alt    "P 1"
_space_group_IT_number       1

loop_
  _space_group_symop_operation_xyz
  'x, y, z'

loop_
  _atom_site_type_symbol
  _atom_site_label
  _atom_site_symmetry_multiplicity
  _atom_site_fract_x
  _atom_site_fract_y
  _atom_site_fract_z
  _atom_site_occupancy
  Ga  Ga1       1.0  0.42034  0.25000  0.68136  1.0000
  Ga  Ga2       1.0  0.07966  0.75000  0.31864  1.0000
  Ga  Ga3       1.0  0.92034  0.25000  0.68136  1.0000
  Ga  Ga4       1.0  0.57966  0.75000  0.31864  1.0000
  P   P1        1.0  0.28564  0.25000  0.14256  1.0000
  P   P2        1.0  0.21436  0.75000  0.85744  1.0000
  P   P3        1.0  0.78564  0.25000  0.14256  1.0000
  P   P4        1.0  0.71436  0.75000  0.85744  1.0000
