data_image0
_chemical_formula_structural       Ga2P2
_chemical_formula_sum              "Ga2 P2"
_cell_length_a       4.93856
_cell_length_b       5.58894
_cell_length_c       6.30606
_cell_angle_alpha    93.1863
_cell_angle_beta     96.3438
_cell_angle_gamma    111.655

_space_group_name_H-M_alt    "P 1"
_space_group_IT_number       1

loop_
  _space_group_symop_operation_xyz
  'x, y, z'

loop_
  _atom_site_type_symbol
  _atom_site_label
  _atom_site_symmetry_multiplicity
  _atom_site_fract_x
  _atom_site_fract_y
  _atom_site_fract_z
  _atom_site_occupancy
  Ga  Ga1       1.0  0.35928  0.50024  0.36813  1.0000
  Ga  Ga2       1.0  0.64072  0.49976  0.63187  1.0000
  P   P1        1.0  0.33420  0.14499  0.75724  1.0000
  P   P2        1.0  0.66580  0.85501  0.24276  1.0000
