data_image0
_chemical_formula_structural       Ga4P4
_chemical_formula_sum              "Ga4 P4"
_cell_length_a       3.15463
_cell_length_b       5.35297
_cell_length_c       5.34965
_cell_angle_alpha    79.8682
_cell_angle_beta     90.5538
_cell_angle_gamma    73.6884

_space_group_name_H-M_alt    "P 1"
_space_group_IT_number       1

loop_
  _space_group_symop_operation_xyz
  'x, y, z'

loop_
  _atom_site_type_symbol
  _atom_site_label
  _atom_site_symmetry_multiplicity
  _atom_site_fract_x
  _atom_site_fract_y
  _atom_site_fract_z
  _atom_site_occupancy
  Ga  Ga1       1.0  0.87226  0.25192  0.64361  1.0000
  Ga  Ga2       1.0  0.39003  0.25059  0.14308  1.0000
  Ga  Ga3       1.0  0.11163  0.74950  0.35592  1.0000
  Ga  Ga4       1.0  0.62677  0.74770  0.85527  1.0000
  P   P1        1.0  0.49578  0.00099  0.50063  1.0000
  P   P2        1.0  0.75123  0.50038  0.25075  1.0000
  P   P3        1.0  0.00268  0.99870  0.99984  1.0000
  P   P4        1.0  0.24961  0.50023  0.75090  1.0000
