data_image0
_chemical_formula_structural       Ga6P6
_chemical_formula_sum              "Ga6 P6"
_cell_length_a       5.24466
_cell_length_b       5.50482
_cell_length_c       7.72594
_cell_angle_alpha    78.8764
_cell_angle_beta     87.2735
_cell_angle_gamma    80.8987

_space_group_name_H-M_alt    "P 1"
_space_group_IT_number       1

loop_
  _space_group_symop_operation_xyz
  'x, y, z'

loop_
  _atom_site_type_symbol
  _atom_site_label
  _atom_site_symmetry_multiplicity
  _atom_site_fract_x
  _atom_site_fract_y
  _atom_site_fract_z
  _atom_site_occupancy
  Ga  Ga1       1.0  0.58330  0.63106  0.86596  1.0000
  Ga  Ga2       1.0  0.05544  0.65323  0.26567  1.0000
  Ga  Ga3       1.0  0.29254  0.63595  0.55139  1.0000
  Ga  Ga4       1.0  0.94456  0.34677  0.73433  1.0000
  Ga  Ga5       1.0  0.41670  0.36895  0.13404  1.0000
  Ga  Ga6       1.0  0.70746  0.36405  0.44861  1.0000
  P   P1        1.0  0.05697  0.78967  0.88434  1.0000
  P   P2        1.0  0.76605  0.85098  0.53390  1.0000
  P   P3        1.0  0.52615  0.83306  0.18407  1.0000
  P   P4        1.0  0.94303  0.21033  0.11566  1.0000
  P   P5        1.0  0.23395  0.14902  0.46610  1.0000
  P   P6        1.0  0.47385  0.16694  0.81593  1.0000
