data_image0
_chemical_formula_structural       Ga2P2
_chemical_formula_sum              "Ga2 P2"
_cell_length_a       4.25725
_cell_length_b       4.59008
_cell_length_c       6.16492
_cell_angle_alpha    111.856
_cell_angle_beta     90
_cell_angle_gamma    90

_space_group_name_H-M_alt    "P 1"
_space_group_IT_number       1

loop_
  _space_group_symop_operation_xyz
  'x, y, z'

loop_
  _atom_site_type_symbol
  _atom_site_label
  _atom_site_symmetry_multiplicity
  _atom_site_fract_x
  _atom_site_fract_y
  _atom_site_fract_z
  _atom_site_occupancy
  Ga  Ga1       1.0  0.25000  0.43279  0.86557  1.0000
  Ga  Ga2       1.0  0.75000  0.56721  0.13443  1.0000
  P   P1        1.0  0.25000  0.13954  0.27908  1.0000
  P   P2        1.0  0.75000  0.86046  0.72092  1.0000
