data_image0
_chemical_formula_structural       Ga3P3
_chemical_formula_sum              "Ga3 P3"
_cell_length_a       5.78188
_cell_length_b       5.78188
_cell_length_c       5.67553
_cell_angle_alpha    78.1119
_cell_angle_beta     78.1119
_cell_angle_gamma    66.5715

_space_group_name_H-M_alt    "P 1"
_space_group_IT_number       1

loop_
  _space_group_symop_operation_xyz
  'x, y, z'

loop_
  _atom_site_type_symbol
  _atom_site_label
  _atom_site_symmetry_multiplicity
  _atom_site_fract_x
  _atom_site_fract_y
  _atom_site_fract_z
  _atom_site_occupancy
  Ga  Ga1       1.0  0.63294  0.02300  0.02314  1.0000
  Ga  Ga2       1.0  0.97700  0.36706  0.97686  1.0000
  Ga  Ga3       1.0  0.54099  0.45901  0.50000  1.0000
  P   P1        1.0  0.37148  0.62852  0.00000  1.0000
  P   P2        1.0  0.16303  0.18544  0.47845  1.0000
  P   P3        1.0  0.81456  0.83697  0.52155  1.0000
