data_image0
_chemical_formula_structural       Ga3P3
_chemical_formula_sum              "Ga3 P3"
_cell_length_a       6.25266
_cell_length_b       6.25266
_cell_length_c       7.63364
_cell_angle_alpha    81.0878
_cell_angle_beta     81.0878
_cell_angle_gamma    30.788

_space_group_name_H-M_alt    "P 1"
_space_group_IT_number       1

loop_
  _space_group_symop_operation_xyz
  'x, y, z'

loop_
  _atom_site_type_symbol
  _atom_site_label
  _atom_site_symmetry_multiplicity
  _atom_site_fract_x
  _atom_site_fract_y
  _atom_site_fract_z
  _atom_site_occupancy
  Ga  Ga1       1.0  0.55424  0.55424  0.30566  1.0000
  Ga  Ga2       1.0  0.30209  0.30209  0.35635  1.0000
  Ga  Ga3       1.0  0.31776  0.31776  0.90490  1.0000
  P   P1        1.0  0.02970  0.02970  0.98148  1.0000
  P   P2        1.0  0.95133  0.95133  0.61753  1.0000
  P   P3        1.0  0.67821  0.67821  0.66740  1.0000
