data_image0
_chemical_formula_structural       Ga4P4
_chemical_formula_sum              "Ga4 P4"
_cell_length_a       8.97294
_cell_length_b       4.67999
_cell_length_c       6.35459
_cell_angle_alpha    90
_cell_angle_beta     69.3453
_cell_angle_gamma    90

_space_group_name_H-M_alt    "P 1"
_space_group_IT_number       1

loop_
  _space_group_symop_operation_xyz
  'x, y, z'

loop_
  _atom_site_type_symbol
  _atom_site_label
  _atom_site_symmetry_multiplicity
  _atom_site_fract_x
  _atom_site_fract_y
  _atom_site_fract_z
  _atom_site_occupancy
  Ga  Ga1       1.0  0.06916  0.75000  0.72302  1.0000
  Ga  Ga2       1.0  0.43083  0.25000  0.27698  1.0000
  Ga  Ga3       1.0  0.56917  0.75000  0.72302  1.0000
  Ga  Ga4       1.0  0.93083  0.25000  0.27698  1.0000
  P   P1        1.0  0.21639  0.75000  0.13435  1.0000
  P   P2        1.0  0.28360  0.25000  0.86565  1.0000
  P   P3        1.0  0.71640  0.75000  0.13435  1.0000
  P   P4        1.0  0.78360  0.25000  0.86565  1.0000
