data_image0
_chemical_formula_structural       Ga4P4
_chemical_formula_sum              "Ga4 P4"
_cell_length_a       3.13191
_cell_length_b       8.78596
_cell_length_c       3.12928
_cell_angle_alpha    89.9993
_cell_angle_beta     90
_cell_angle_gamma    90.2966

_space_group_name_H-M_alt    "P 1"
_space_group_IT_number       1

loop_
  _space_group_symop_operation_xyz
  'x, y, z'

loop_
  _atom_site_type_symbol
  _atom_site_label
  _atom_site_symmetry_multiplicity
  _atom_site_fract_x
  _atom_site_fract_y
  _atom_site_fract_z
  _atom_site_occupancy
  Ga  Ga1       1.0  0.00169  0.74356  0.00000  1.0000
  Ga  Ga2       1.0  0.49832  0.00644  0.50000  1.0000
  Ga  Ga3       1.0  0.00168  0.24355  0.00000  1.0000
  Ga  Ga4       1.0  0.49831  0.50644  0.50000  1.0000
  P   P1        1.0  0.99855  0.49332  0.00000  1.0000
  P   P2        1.0  0.50145  0.75668  0.50000  1.0000
  P   P3        1.0  0.99856  0.99332  0.00000  1.0000
  P   P4        1.0  0.50144  0.25668  0.50000  1.0000
