data_image0
_chemical_formula_structural       Ga2P2
_chemical_formula_sum              "Ga2 P2"
_cell_length_a       3.6693
_cell_length_b       7.3386
_cell_length_c       3.6693
_cell_angle_alpha    39.872
_cell_angle_beta     39.872
_cell_angle_gamma    39.872

_space_group_name_H-M_alt    "P 1"
_space_group_IT_number       1

loop_
  _space_group_symop_operation_xyz
  'x, y, z'

loop_
  _atom_site_type_symbol
  _atom_site_label
  _atom_site_symmetry_multiplicity
  _atom_site_fract_x
  _atom_site_fract_y
  _atom_site_fract_z
  _atom_site_occupancy
  Ga  Ga1       1.0  0.99967  0.49983  0.99967  1.0000
  Ga  Ga2       1.0  0.99967  0.99984  0.99967  1.0000
  P   P1        1.0  0.33276  0.16638  0.33276  1.0000
  P   P2        1.0  0.33276  0.66638  0.33276  1.0000
