data_image0
_chemical_formula_structural       Ga3P3
_chemical_formula_sum              "Ga3 P3"
_cell_length_a       8.79637
_cell_length_b       8.79637
_cell_length_c       5.45306
_cell_angle_alpha    90
_cell_angle_beta     90
_cell_angle_gamma    156.302

_space_group_name_H-M_alt    "P 1"
_space_group_IT_number       1

loop_
  _space_group_symop_operation_xyz
  'x, y, z'

loop_
  _atom_site_type_symbol
  _atom_site_label
  _atom_site_symmetry_multiplicity
  _atom_site_fract_x
  _atom_site_fract_y
  _atom_site_fract_z
  _atom_site_occupancy
  Ga  Ga1       1.0  0.99070  0.00930  0.00000  1.0000
  Ga  Ga2       1.0  0.67112  0.32888  0.00000  1.0000
  Ga  Ga3       1.0  0.11213  0.88787  0.50000  1.0000
  P   P1        1.0  0.33282  0.66718  0.00000  1.0000
  P   P2        1.0  0.44313  0.55687  0.50000  1.0000
  P   P3        1.0  0.78343  0.21657  0.50000  1.0000
