data_image0
_chemical_formula_structural       Ga4P4
_chemical_formula_sum              "Ga4 P4"
_cell_length_a       5.43684
_cell_length_b       7.38856
_cell_length_c       3.74225
_cell_angle_alpha    84.5776
_cell_angle_beta     90
_cell_angle_gamma    90

_space_group_name_H-M_alt    "P 1"
_space_group_IT_number       1

loop_
  _space_group_symop_operation_xyz
  'x, y, z'

loop_
  _atom_site_type_symbol
  _atom_site_label
  _atom_site_symmetry_multiplicity
  _atom_site_fract_x
  _atom_site_fract_y
  _atom_site_fract_z
  _atom_site_occupancy
  Ga  Ga1       1.0  0.03880  0.36284  0.72380  1.0000
  Ga  Ga2       1.0  0.53880  0.13717  0.27620  1.0000
  Ga  Ga3       1.0  0.03880  0.86283  0.72380  1.0000
  Ga  Ga4       1.0  0.53880  0.63716  0.27620  1.0000
  P   P1        1.0  0.45432  0.34115  0.67822  1.0000
  P   P2        1.0  0.95432  0.15885  0.32178  1.0000
  P   P3        1.0  0.45432  0.84115  0.67822  1.0000
  P   P4        1.0  0.95432  0.65885  0.32178  1.0000
