data_image0
_chemical_formula_structural       Ga8P8
_chemical_formula_sum              "Ga8 P8"
_cell_length_a       6.19544
_cell_length_b       6.35081
_cell_length_c       6.11435
_cell_angle_alpha    67.2315
_cell_angle_beta     83.2431
_cell_angle_gamma    108.942

_space_group_name_H-M_alt    "P 1"
_space_group_IT_number       1

loop_
  _space_group_symop_operation_xyz
  'x, y, z'

loop_
  _atom_site_type_symbol
  _atom_site_label
  _atom_site_symmetry_multiplicity
  _atom_site_fract_x
  _atom_site_fract_y
  _atom_site_fract_z
  _atom_site_occupancy
  Ga  Ga1       1.0  0.30013  0.50030  0.89991  1.0000
  Ga  Ga2       1.0  0.29982  0.00004  0.39990  1.0000
  Ga  Ga3       1.0  0.05014  0.00032  0.89990  1.0000
  Ga  Ga4       1.0  0.04983  0.50005  0.39989  1.0000
  Ga  Ga5       1.0  0.80013  0.50030  0.89991  1.0000
  Ga  Ga6       1.0  0.79982  0.00004  0.39990  1.0000
  Ga  Ga7       1.0  0.55014  0.00032  0.89990  1.0000
  Ga  Ga8       1.0  0.54983  0.50005  0.39989  1.0000
  P   P1        1.0  0.47623  0.36750  0.14757  1.0000
  P   P2        1.0  0.22622  0.86751  0.14756  1.0000
  P   P3        1.0  0.37380  0.13220  0.65263  1.0000
  P   P4        1.0  0.12377  0.63218  0.65265  1.0000
  P   P5        1.0  0.97623  0.36750  0.14757  1.0000
  P   P6        1.0  0.72622  0.86751  0.14756  1.0000
  P   P7        1.0  0.87380  0.13220  0.65263  1.0000
  P   P8        1.0  0.62377  0.63218  0.65265  1.0000
