data_image0
_chemical_formula_structural       Ga4P4
_chemical_formula_sum              "Ga4 P4"
_cell_length_a       2.88521
_cell_length_b       5.87808
_cell_length_c       4.13733
_cell_angle_alpha    88.5062
_cell_angle_beta     90
_cell_angle_gamma    90

_space_group_name_H-M_alt    "P 1"
_space_group_IT_number       1

loop_
  _space_group_symop_operation_xyz
  'x, y, z'

loop_
  _atom_site_type_symbol
  _atom_site_label
  _atom_site_symmetry_multiplicity
  _atom_site_fract_x
  _atom_site_fract_y
  _atom_site_fract_z
  _atom_site_occupancy
  Ga  Ga1       1.0  0.25000  0.38910  0.26381  1.0000
  Ga  Ga2       1.0  0.75000  0.11090  0.73619  1.0000
  Ga  Ga3       1.0  0.25000  0.88910  0.26381  1.0000
  Ga  Ga4       1.0  0.75000  0.61090  0.73619  1.0000
  P   P1        1.0  0.25000  0.35289  0.77206  1.0000
  P   P2        1.0  0.75000  0.14711  0.22794  1.0000
  P   P3        1.0  0.25000  0.85289  0.77206  1.0000
  P   P4        1.0  0.75000  0.64711  0.22794  1.0000
