data_image0
_chemical_formula_structural       Ga4P4
_chemical_formula_sum              "Ga4 P4"
_cell_length_a       4.44972
_cell_length_b       6.77034
_cell_length_c       5.44025
_cell_angle_alpha    90
_cell_angle_beta     90
_cell_angle_gamma    90

_space_group_name_H-M_alt    "P 1"
_space_group_IT_number       1

loop_
  _space_group_symop_operation_xyz
  'x, y, z'

loop_
  _atom_site_type_symbol
  _atom_site_label
  _atom_site_symmetry_multiplicity
  _atom_site_fract_x
  _atom_site_fract_y
  _atom_site_fract_z
  _atom_site_occupancy
  Ga  Ga1       1.0  0.75000  0.81828  0.35782  1.0000
  Ga  Ga2       1.0  0.25000  0.18172  0.64218  1.0000
  Ga  Ga3       1.0  0.25000  0.68172  0.85782  1.0000
  Ga  Ga4       1.0  0.75000  0.31828  0.14218  1.0000
  P   P1        1.0  0.75000  0.95665  0.84240  1.0000
  P   P2        1.0  0.25000  0.04335  0.15760  1.0000
  P   P3        1.0  0.25000  0.54335  0.34240  1.0000
  P   P4        1.0  0.75000  0.45665  0.65760  1.0000
