data_image0
_chemical_formula_structural       Ga2P2
_chemical_formula_sum              "Ga2 P2"
_cell_length_a       5.90262
_cell_length_b       5.90262
_cell_length_c       5.35521
_cell_angle_alpha    63.8384
_cell_angle_beta     63.8384
_cell_angle_gamma    30.3294

_space_group_name_H-M_alt    "P 1"
_space_group_IT_number       1

loop_
  _space_group_symop_operation_xyz
  'x, y, z'

loop_
  _atom_site_type_symbol
  _atom_site_label
  _atom_site_symmetry_multiplicity
  _atom_site_fract_x
  _atom_site_fract_y
  _atom_site_fract_z
  _atom_site_occupancy
  Ga  Ga1       1.0  0.87632  0.87632  0.79348  1.0000
  Ga  Ga2       1.0  0.12368  0.12368  0.20652  1.0000
  P   P1        1.0  0.62518  0.62518  0.70840  1.0000
  P   P2        1.0  0.37482  0.37482  0.29159  1.0000
