data_image0
_chemical_formula_structural       Ga4P4
_chemical_formula_sum              "Ga4 P4"
_cell_length_a       6.30764
_cell_length_b       6.30764
_cell_length_c       6.30764
_cell_angle_alpha    97.8052
_cell_angle_beta     97.8052
_cell_angle_gamma    136.752

_space_group_name_H-M_alt    "P 1"
_space_group_IT_number       1

loop_
  _space_group_symop_operation_xyz
  'x, y, z'

loop_
  _atom_site_type_symbol
  _atom_site_label
  _atom_site_symmetry_multiplicity
  _atom_site_fract_x
  _atom_site_fract_y
  _atom_site_fract_z
  _atom_site_occupancy
  Ga  Ga1       1.0  0.88921  0.38921  0.27841  1.0000
  Ga  Ga2       1.0  0.11079  0.61079  0.72159  1.0000
  Ga  Ga3       1.0  0.61079  0.88920  0.50000  1.0000
  Ga  Ga4       1.0  0.38920  0.11080  0.50000  1.0000
  P   P1        1.0  0.67833  0.17833  0.85666  1.0000
  P   P2        1.0  0.32167  0.82167  0.14334  1.0000
  P   P3        1.0  0.82167  0.67833  0.50000  1.0000
  P   P4        1.0  0.17833  0.32167  0.50000  1.0000
