data_image0
_chemical_formula_structural       Ga2P2
_chemical_formula_sum              "Ga2 P2"
_cell_length_a       3.72855
_cell_length_b       4.62402
_cell_length_c       5.76412
_cell_angle_alpha    90
_cell_angle_beta     71.052
_cell_angle_gamma    90

_space_group_name_H-M_alt    "P 1"
_space_group_IT_number       1

loop_
  _space_group_symop_operation_xyz
  'x, y, z'

loop_
  _atom_site_type_symbol
  _atom_site_label
  _atom_site_symmetry_multiplicity
  _atom_site_fract_x
  _atom_site_fract_y
  _atom_site_fract_z
  _atom_site_occupancy
  Ga  Ga1       1.0  0.41175  0.75000  0.17636  1.0000
  Ga  Ga2       1.0  0.58825  0.25000  0.82364  1.0000
  P   P1        1.0  0.13859  0.75000  0.72277  1.0000
  P   P2        1.0  0.86141  0.25000  0.27723  1.0000
