data_image0
_chemical_formula_structural       Ga4P4
_chemical_formula_sum              "Ga4 P4"
_cell_length_a       5.7914
_cell_length_b       6.23603
_cell_length_c       6.47865
_cell_angle_alpha    67.3297
_cell_angle_beta     79.0054
_cell_angle_gamma    83.6965

_space_group_name_H-M_alt    "P 1"
_space_group_IT_number       1

loop_
  _space_group_symop_operation_xyz
  'x, y, z'

loop_
  _atom_site_type_symbol
  _atom_site_label
  _atom_site_symmetry_multiplicity
  _atom_site_fract_x
  _atom_site_fract_y
  _atom_site_fract_z
  _atom_site_occupancy
  Ga  Ga1       1.0  0.76240  0.85043  0.92175  1.0000
  Ga  Ga2       1.0  0.23760  0.14957  0.07825  1.0000
  Ga  Ga3       1.0  0.32455  0.69858  0.64922  1.0000
  Ga  Ga4       1.0  0.67545  0.30142  0.35078  1.0000
  P   P1        1.0  0.86011  0.75478  0.42855  1.0000
  P   P2        1.0  0.13989  0.24522  0.57145  1.0000
  P   P3        1.0  0.79097  0.38976  0.80654  1.0000
  P   P4        1.0  0.20903  0.61024  0.19346  1.0000
