data_image0
_chemical_formula_structural       Ga3P3
_chemical_formula_sum              "Ga3 P3"
_cell_length_a       7.03061
_cell_length_b       7.03061
_cell_length_c       8.20793
_cell_angle_alpha    74.5992
_cell_angle_beta     74.5992
_cell_angle_gamma    29.7626

_space_group_name_H-M_alt    "P 1"
_space_group_IT_number       1

loop_
  _space_group_symop_operation_xyz
  'x, y, z'

loop_
  _atom_site_type_symbol
  _atom_site_label
  _atom_site_symmetry_multiplicity
  _atom_site_fract_x
  _atom_site_fract_y
  _atom_site_fract_z
  _atom_site_occupancy
  Ga  Ga1       1.0  0.00262  0.00262  0.99521  1.0000
  Ga  Ga2       1.0  0.66714  0.66714  0.67858  1.0000
  Ga  Ga3       1.0  0.27435  0.27435  0.94370  1.0000
  P   P1        1.0  0.61138  0.61138  0.25349  1.0000
  P   P2        1.0  0.33251  0.33251  0.32721  1.0000
  P   P3        1.0  0.94534  0.94534  0.63515  1.0000
