data_image0
_chemical_formula_structural       Ga4P4
_chemical_formula_sum              "Ga4 P4"
_cell_length_a       3.23541
_cell_length_b       5.55681
_cell_length_c       6.30428
_cell_angle_alpha    90
_cell_angle_beta     90
_cell_angle_gamma    90

_space_group_name_H-M_alt    "P 1"
_space_group_IT_number       1

loop_
  _space_group_symop_operation_xyz
  'x, y, z'

loop_
  _atom_site_type_symbol
  _atom_site_label
  _atom_site_symmetry_multiplicity
  _atom_site_fract_x
  _atom_site_fract_y
  _atom_site_fract_z
  _atom_site_occupancy
  Ga  Ga1       1.0  0.25000  0.68203  0.93800  1.0000
  Ga  Ga2       1.0  0.75000  0.31797  0.06200  1.0000
  Ga  Ga3       1.0  0.25000  0.18203  0.56200  1.0000
  Ga  Ga4       1.0  0.75000  0.81797  0.43800  1.0000
  P   P1        1.0  0.25000  0.50122  0.29440  1.0000
  P   P2        1.0  0.75000  0.49878  0.70560  1.0000
  P   P3        1.0  0.25000  0.00122  0.20560  1.0000
  P   P4        1.0  0.75000  0.99878  0.79440  1.0000
