data_image0
_chemical_formula_structural       Ga10P10
_chemical_formula_sum              "Ga10 P10"
_cell_length_a       8.26752
_cell_length_b       5.09789
_cell_length_c       5.84807
_cell_angle_alpha    105.935
_cell_angle_beta     90.0038
_cell_angle_gamma    113.919

_space_group_name_H-M_alt    "P 1"
_space_group_IT_number       1

loop_
  _space_group_symop_operation_xyz
  'x, y, z'

loop_
  _atom_site_type_symbol
  _atom_site_label
  _atom_site_symmetry_multiplicity
  _atom_site_fract_x
  _atom_site_fract_y
  _atom_site_fract_z
  _atom_site_occupancy
  Ga  Ga1       1.0  0.32226  0.28910  0.32817  1.0000
  Ga  Ga2       1.0  0.17774  0.71090  0.67183  1.0000
  Ga  Ga3       1.0  0.32915  0.31657  0.82185  1.0000
  Ga  Ga4       1.0  0.17086  0.68343  0.17815  1.0000
  Ga  Ga5       1.0  0.00000  0.00000  0.50000  1.0000
  Ga  Ga6       1.0  0.82226  0.28910  0.32817  1.0000
  Ga  Ga7       1.0  0.67775  0.71090  0.67183  1.0000
  Ga  Ga8       1.0  0.82915  0.31657  0.82185  1.0000
  Ga  Ga9       1.0  0.67085  0.68343  0.17815  1.0000
  Ga  Ga10      1.0  0.50000  0.00000  0.50000  1.0000
  P   P1        1.0  0.25000  0.00000  0.00000  1.0000
  P   P2        1.0  0.41166  0.64661  0.16916  1.0000
  P   P3        1.0  0.08834  0.35339  0.83084  1.0000
  P   P4        1.0  0.41291  0.65152  0.65335  1.0000
  P   P5        1.0  0.08708  0.34848  0.34665  1.0000
  P   P6        1.0  0.75000  0.00000  0.00000  1.0000
  P   P7        1.0  0.91166  0.64661  0.16916  1.0000
  P   P8        1.0  0.58834  0.35339  0.83084  1.0000
  P   P9        1.0  0.91291  0.65152  0.65335  1.0000
  P   P10       1.0  0.58709  0.34848  0.34665  1.0000
