data_image0
_chemical_formula_structural       Ga4P4
_chemical_formula_sum              "Ga4 P4"
_cell_length_a       4.22147
_cell_length_b       5.863
_cell_length_c       7.26002
_cell_angle_alpha    90
_cell_angle_beta     90
_cell_angle_gamma    90

_space_group_name_H-M_alt    "P 1"
_space_group_IT_number       1

loop_
  _space_group_symop_operation_xyz
  'x, y, z'

loop_
  _atom_site_type_symbol
  _atom_site_label
  _atom_site_symmetry_multiplicity
  _atom_site_fract_x
  _atom_site_fract_y
  _atom_site_fract_z
  _atom_site_occupancy
  Ga  Ga1       1.0  0.25000  0.00236  0.74500  1.0000
  Ga  Ga2       1.0  0.25000  0.50236  0.75500  1.0000
  Ga  Ga3       1.0  0.75000  0.99764  0.25500  1.0000
  Ga  Ga4       1.0  0.75000  0.49764  0.24500  1.0000
  P   P1        1.0  0.25000  0.25455  0.41623  1.0000
  P   P2        1.0  0.25000  0.75455  0.08377  1.0000
  P   P3        1.0  0.75000  0.74545  0.58377  1.0000
  P   P4        1.0  0.75000  0.24544  0.91623  1.0000
