data_image0
_chemical_formula_structural       Ga4P4
_chemical_formula_sum              "Ga4 P4"
_cell_length_a       4.54911
_cell_length_b       6.23291
_cell_length_c       8.88339
_cell_angle_alpha    90
_cell_angle_beta     90
_cell_angle_gamma    90

_space_group_name_H-M_alt    "P 1"
_space_group_IT_number       1

loop_
  _space_group_symop_operation_xyz
  'x, y, z'

loop_
  _atom_site_type_symbol
  _atom_site_label
  _atom_site_symmetry_multiplicity
  _atom_site_fract_x
  _atom_site_fract_y
  _atom_site_fract_z
  _atom_site_occupancy
  Ga  Ga1       1.0  0.25000  0.91107  0.52382  1.0000
  Ga  Ga2       1.0  0.75000  0.08893  0.47618  1.0000
  Ga  Ga3       1.0  0.75000  0.41107  0.97618  1.0000
  Ga  Ga4       1.0  0.25000  0.58893  0.02382  1.0000
  P   P1        1.0  0.25000  0.39230  0.67838  1.0000
  P   P2        1.0  0.75000  0.60770  0.32162  1.0000
  P   P3        1.0  0.75000  0.89230  0.82162  1.0000
  P   P4        1.0  0.25000  0.10770  0.17838  1.0000
