data_image0
_chemical_formula_structural       Ga4P4
_chemical_formula_sum              "Ga4 P4"
_cell_length_a       4.47968
_cell_length_b       6.84746
_cell_length_c       5.46631
_cell_angle_alpha    90
_cell_angle_beta     90
_cell_angle_gamma    90

_space_group_name_H-M_alt    "P 1"
_space_group_IT_number       1

loop_
  _space_group_symop_operation_xyz
  'x, y, z'

loop_
  _atom_site_type_symbol
  _atom_site_label
  _atom_site_symmetry_multiplicity
  _atom_site_fract_x
  _atom_site_fract_y
  _atom_site_fract_z
  _atom_site_occupancy
  Ga  Ga1       1.0  0.75000  0.81808  0.35861  1.0000
  Ga  Ga2       1.0  0.25000  0.18192  0.64139  1.0000
  Ga  Ga3       1.0  0.25000  0.68192  0.85861  1.0000
  Ga  Ga4       1.0  0.75000  0.31808  0.14139  1.0000
  P   P1        1.0  0.75000  0.95664  0.84348  1.0000
  P   P2        1.0  0.25000  0.04336  0.15652  1.0000
  P   P3        1.0  0.25000  0.54336  0.34348  1.0000
  P   P4        1.0  0.75000  0.45664  0.65652  1.0000
