data_image0
_chemical_formula_structural       Ga4P4
_chemical_formula_sum              "Ga4 P4"
_cell_length_a       3.92564
_cell_length_b       8.89802
_cell_length_c       5.98428
_cell_angle_alpha    90
_cell_angle_beta     109.147
_cell_angle_gamma    90

_space_group_name_H-M_alt    "P 1"
_space_group_IT_number       1

loop_
  _space_group_symop_operation_xyz
  'x, y, z'

loop_
  _atom_site_type_symbol
  _atom_site_label
  _atom_site_symmetry_multiplicity
  _atom_site_fract_x
  _atom_site_fract_y
  _atom_site_fract_z
  _atom_site_occupancy
  Ga  Ga1       1.0  0.40386  0.37500  0.80773  1.0000
  Ga  Ga2       1.0  0.59614  0.12500  0.19227  1.0000
  Ga  Ga3       1.0  0.40386  0.87500  0.80773  1.0000
  Ga  Ga4       1.0  0.59614  0.62500  0.19227  1.0000
  P   P1        1.0  0.13591  0.37500  0.27183  1.0000
  P   P2        1.0  0.86409  0.12500  0.72817  1.0000
  P   P3        1.0  0.13591  0.87500  0.27183  1.0000
  P   P4        1.0  0.86409  0.62500  0.72817  1.0000
