data_image0
_chemical_formula_structural       Ga3P3
_chemical_formula_sum              "Ga3 P3"
_cell_length_a       5.77938
_cell_length_b       5.77938
_cell_length_c       6.74035
_cell_angle_alpha    76.3424
_cell_angle_beta     76.3424
_cell_angle_gamma    30.0584

_space_group_name_H-M_alt    "P 1"
_space_group_IT_number       1

loop_
  _space_group_symop_operation_xyz
  'x, y, z'

loop_
  _atom_site_type_symbol
  _atom_site_label
  _atom_site_symmetry_multiplicity
  _atom_site_fract_x
  _atom_site_fract_y
  _atom_site_fract_z
  _atom_site_occupancy
  Ga  Ga1       1.0  0.62213  0.62213  0.26991  1.0000
  Ga  Ga2       1.0  0.32504  0.32504  0.32813  1.0000
  Ga  Ga3       1.0  0.27527  0.27527  0.95462  1.0000
  P   P1        1.0  0.99165  0.99165  0.02261  1.0000
  P   P2        1.0  0.94591  0.94591  0.59241  1.0000
  P   P3        1.0  0.67334  0.67334  0.66565  1.0000
