data_image0
_chemical_formula_structural       Ga2P2
_chemical_formula_sum              "Ga2 P2"
_cell_length_a       4.1764
_cell_length_b       4.68075
_cell_length_c       4.68075
_cell_angle_alpha    70.9721
_cell_angle_beta     63.5047
_cell_angle_gamma    63.5047

_space_group_name_H-M_alt    "P 1"
_space_group_IT_number       1

loop_
  _space_group_symop_operation_xyz
  'x, y, z'

loop_
  _atom_site_type_symbol
  _atom_site_label
  _atom_site_symmetry_multiplicity
  _atom_site_fract_x
  _atom_site_fract_y
  _atom_site_fract_z
  _atom_site_occupancy
  Ga  Ga1       1.0  0.75503  0.24497  0.24497  1.0000
  Ga  Ga2       1.0  0.24497  0.75502  0.75502  1.0000
  P   P1        1.0  0.00000  0.61629  0.38371  1.0000
  P   P2        1.0  0.00000  0.38371  0.61629  1.0000
