data_image0
_chemical_formula_structural       Ga3P3
_chemical_formula_sum              "Ga3 P3"
_cell_length_a       5.85325
_cell_length_b       5.85325
_cell_length_c       6.48405
_cell_angle_alpha    64.475
_cell_angle_beta     64.475
_cell_angle_gamma    60.4883

_space_group_name_H-M_alt    "P 1"
_space_group_IT_number       1

loop_
  _space_group_symop_operation_xyz
  'x, y, z'

loop_
  _atom_site_type_symbol
  _atom_site_label
  _atom_site_symmetry_multiplicity
  _atom_site_fract_x
  _atom_site_fract_y
  _atom_site_fract_z
  _atom_site_occupancy
  Ga  Ga1       1.0  0.35288  0.64712  0.00000  1.0000
  Ga  Ga2       1.0  0.82859  0.84498  0.48786  1.0000
  Ga  Ga3       1.0  0.15502  0.17141  0.51214  1.0000
  P   P1        1.0  0.00025  0.33419  0.00374  1.0000
  P   P2        1.0  0.66581  0.99975  0.99626  1.0000
  P   P3        1.0  0.49745  0.50255  0.50000  1.0000
