data_image0
_chemical_formula_structural       Ga2P2
_chemical_formula_sum              "Ga2 P2"
_cell_length_a       5.57608
_cell_length_b       5.57608
_cell_length_c       4.83903
_cell_angle_alpha    72.7733
_cell_angle_beta     72.7733
_cell_angle_gamma    33.131

_space_group_name_H-M_alt    "P 1"
_space_group_IT_number       1

loop_
  _space_group_symop_operation_xyz
  'x, y, z'

loop_
  _atom_site_type_symbol
  _atom_site_label
  _atom_site_symmetry_multiplicity
  _atom_site_fract_x
  _atom_site_fract_y
  _atom_site_fract_z
  _atom_site_occupancy
  Ga  Ga1       1.0  0.37413  0.37412  0.78459  1.0000
  Ga  Ga2       1.0  0.62587  0.62587  0.21541  1.0000
  P   P1        1.0  0.11911  0.11911  0.70996  1.0000
  P   P2        1.0  0.88089  0.88089  0.29004  1.0000
