data_image0
_chemical_formula_structural       Ga4P4
_chemical_formula_sum              "Ga4 P4"
_cell_length_a       7.18306
_cell_length_b       4.0117
_cell_length_c       4.0117
_cell_angle_alpha    73.5246
_cell_angle_beta     63.4082
_cell_angle_gamma    63.4082

_space_group_name_H-M_alt    "P 1"
_space_group_IT_number       1

loop_
  _space_group_symop_operation_xyz
  'x, y, z'

loop_
  _atom_site_type_symbol
  _atom_site_label
  _atom_site_symmetry_multiplicity
  _atom_site_fract_x
  _atom_site_fract_y
  _atom_site_fract_z
  _atom_site_occupancy
  Ga  Ga1       1.0  0.38034  0.73931  0.73931  1.0000
  Ga  Ga2       1.0  0.11966  0.26069  0.26069  1.0000
  Ga  Ga3       1.0  0.88034  0.73931  0.73931  1.0000
  Ga  Ga4       1.0  0.61965  0.26069  0.26069  1.0000
  P   P1        1.0  0.00000  0.86974  0.13026  1.0000
  P   P2        1.0  0.00000  0.13026  0.86974  1.0000
  P   P3        1.0  0.50000  0.86974  0.13026  1.0000
  P   P4        1.0  0.50000  0.13026  0.86974  1.0000
