data_image0
_chemical_formula_structural       Ga2P2
_chemical_formula_sum              "Ga2 P2"
_cell_length_a       3.09175
_cell_length_b       3.82214
_cell_length_c       6.60157
_cell_angle_alpha    56.1046
_cell_angle_beta     110.162
_cell_angle_gamma    128.178

_space_group_name_H-M_alt    "P 1"
_space_group_IT_number       1

loop_
  _space_group_symop_operation_xyz
  'x, y, z'

loop_
  _atom_site_type_symbol
  _atom_site_label
  _atom_site_symmetry_multiplicity
  _atom_site_fract_x
  _atom_site_fract_y
  _atom_site_fract_z
  _atom_site_occupancy
  Ga  Ga1       1.0  0.00005  0.00014  0.90000  1.0000
  Ga  Ga2       1.0  0.99995  0.00010  0.39999  1.0000
  P   P1        1.0  0.48760  0.74374  0.15000  1.0000
  P   P2        1.0  0.51239  0.25612  0.65001  1.0000
