data_image0
_chemical_formula_structural       Ga2P2
_chemical_formula_sum              "Ga2 P2"
_cell_length_a       5.33786
_cell_length_b       5.33786
_cell_length_c       4.83166
_cell_angle_alpha    71.7362
_cell_angle_beta     71.7362
_cell_angle_gamma    32.8999

_space_group_name_H-M_alt    "P 1"
_space_group_IT_number       1

loop_
  _space_group_symop_operation_xyz
  'x, y, z'

loop_
  _atom_site_type_symbol
  _atom_site_label
  _atom_site_symmetry_multiplicity
  _atom_site_fract_x
  _atom_site_fract_y
  _atom_site_fract_z
  _atom_site_occupancy
  Ga  Ga1       1.0  0.89225  0.89225  0.82206  1.0000
  Ga  Ga2       1.0  0.10775  0.10775  0.17794  1.0000
  P   P1        1.0  0.64655  0.64655  0.65825  1.0000
  P   P2        1.0  0.35345  0.35345  0.34175  1.0000
