data_image0
_chemical_formula_structural       Ga4P4
_chemical_formula_sum              "Ga4 P4"
_cell_length_a       7.02444
_cell_length_b       3.51222
_cell_length_c       5.55525
_cell_angle_alpha    87.3562
_cell_angle_beta     87.3562
_cell_angle_gamma    74.318

_space_group_name_H-M_alt    "P 1"
_space_group_IT_number       1

loop_
  _space_group_symop_operation_xyz
  'x, y, z'

loop_
  _atom_site_type_symbol
  _atom_site_label
  _atom_site_symmetry_multiplicity
  _atom_site_fract_x
  _atom_site_fract_y
  _atom_site_fract_z
  _atom_site_occupancy
  Ga  Ga1       1.0  0.29647  0.59294  0.94336  1.0000
  Ga  Ga2       1.0  0.08170  0.16341  0.45107  1.0000
  Ga  Ga3       1.0  0.79647  0.59294  0.94336  1.0000
  Ga  Ga4       1.0  0.58171  0.16341  0.45107  1.0000
  P   P1        1.0  0.26906  0.53812  0.54874  1.0000
  P   P2        1.0  0.10641  0.21283  0.05671  1.0000
  P   P3        1.0  0.76906  0.53812  0.54874  1.0000
  P   P4        1.0  0.60642  0.21283  0.05671  1.0000
