data_image0
_chemical_formula_structural       Ga2P2
_chemical_formula_sum              "Ga2 P2"
_cell_length_a       2.82977
_cell_length_b       2.82977
_cell_length_c       6.13615
_cell_angle_alpha    80.3514
_cell_angle_beta     80.3514
_cell_angle_gamma    89.1143

_space_group_name_H-M_alt    "P 1"
_space_group_IT_number       1

loop_
  _space_group_symop_operation_xyz
  'x, y, z'

loop_
  _atom_site_type_symbol
  _atom_site_label
  _atom_site_symmetry_multiplicity
  _atom_site_fract_x
  _atom_site_fract_y
  _atom_site_fract_z
  _atom_site_occupancy
  Ga  Ga1       1.0  0.68686  0.68686  0.19666  1.0000
  Ga  Ga2       1.0  0.31314  0.31314  0.80334  1.0000
  P   P1        1.0  0.85294  0.85294  0.70292  1.0000
  P   P2        1.0  0.14706  0.14706  0.29708  1.0000
