data_image0
_chemical_formula_structural       Ga4P4
_chemical_formula_sum              "Ga4 P4"
_cell_length_a       3.83896
_cell_length_b       5.72157
_cell_length_c       7.94671
_cell_angle_alpha    90
_cell_angle_beta     90
_cell_angle_gamma    90

_space_group_name_H-M_alt    "P 1"
_space_group_IT_number       1

loop_
  _space_group_symop_operation_xyz
  'x, y, z'

loop_
  _atom_site_type_symbol
  _atom_site_label
  _atom_site_symmetry_multiplicity
  _atom_site_fract_x
  _atom_site_fract_y
  _atom_site_fract_z
  _atom_site_occupancy
  Ga  Ga1       1.0  0.25000  0.38522  0.67933  1.0000
  Ga  Ga2       1.0  0.75000  0.61478  0.32067  1.0000
  Ga  Ga3       1.0  0.75000  0.88522  0.82067  1.0000
  Ga  Ga4       1.0  0.25000  0.11478  0.17933  1.0000
  P   P1        1.0  0.25000  0.87274  0.53727  1.0000
  P   P2        1.0  0.75000  0.12726  0.46273  1.0000
  P   P3        1.0  0.75000  0.37274  0.96273  1.0000
  P   P4        1.0  0.25000  0.62726  0.03727  1.0000
