data_image0
_chemical_formula_structural       Ga3P3
_chemical_formula_sum              "Ga3 P3"
_cell_length_a       9.34038
_cell_length_b       9.34038
_cell_length_c       5.95492
_cell_angle_alpha    90
_cell_angle_beta     90
_cell_angle_gamma    154.52

_space_group_name_H-M_alt    "P 1"
_space_group_IT_number       1

loop_
  _space_group_symop_operation_xyz
  'x, y, z'

loop_
  _atom_site_type_symbol
  _atom_site_label
  _atom_site_symmetry_multiplicity
  _atom_site_fract_x
  _atom_site_fract_y
  _atom_site_fract_z
  _atom_site_occupancy
  Ga  Ga1       1.0  0.97071  0.02929  0.00000  1.0000
  Ga  Ga2       1.0  0.65786  0.34214  0.00000  1.0000
  Ga  Ga3       1.0  0.80417  0.19583  0.50000  1.0000
  P   P1        1.0  0.31878  0.68122  0.00000  1.0000
  P   P2        1.0  0.10863  0.89137  0.50000  1.0000
  P   P3        1.0  0.47318  0.52682  0.50000  1.0000
