data_image0
_chemical_formula_structural       Ga6P6
_chemical_formula_sum              "Ga6 P6"
_cell_length_a       5.38704
_cell_length_b       5.63862
_cell_length_c       8.57656
_cell_angle_alpha    100.862
_cell_angle_beta     103.172
_cell_angle_gamma    110.683

_space_group_name_H-M_alt    "P 1"
_space_group_IT_number       1

loop_
  _space_group_symop_operation_xyz
  'x, y, z'

loop_
  _atom_site_type_symbol
  _atom_site_label
  _atom_site_symmetry_multiplicity
  _atom_site_fract_x
  _atom_site_fract_y
  _atom_site_fract_z
  _atom_site_occupancy
  Ga  Ga1       1.0  0.48340  0.03123  0.69161  1.0000
  Ga  Ga2       1.0  0.75918  0.80872  0.04081  1.0000
  Ga  Ga3       1.0  0.51660  0.96877  0.30839  1.0000
  Ga  Ga4       1.0  0.16395  0.39861  0.36116  1.0000
  Ga  Ga5       1.0  0.24081  0.19128  0.95919  1.0000
  Ga  Ga6       1.0  0.83604  0.60139  0.63884  1.0000
  P   P1        1.0  0.95726  0.11727  0.61412  1.0000
  P   P2        1.0  0.81903  0.31967  0.02451  1.0000
  P   P3        1.0  0.18096  0.68033  0.97549  1.0000
  P   P4        1.0  0.34509  0.53313  0.73225  1.0000
  P   P5        1.0  0.04274  0.88273  0.38588  1.0000
  P   P6        1.0  0.65491  0.46687  0.26775  1.0000
