data_image0
_chemical_formula_structural       Ga3P3
_chemical_formula_sum              "Ga3 P3"
_cell_length_a       5.8718
_cell_length_b       5.8718
_cell_length_c       7.20465
_cell_angle_alpha    75.3115
_cell_angle_beta     75.3115
_cell_angle_gamma    29.2788

_space_group_name_H-M_alt    "P 1"
_space_group_IT_number       1

loop_
  _space_group_symop_operation_xyz
  'x, y, z'

loop_
  _atom_site_type_symbol
  _atom_site_label
  _atom_site_symmetry_multiplicity
  _atom_site_fract_x
  _atom_site_fract_y
  _atom_site_fract_z
  _atom_site_occupancy
  Ga  Ga1       1.0  0.99997  0.99997  0.00598  1.0000
  Ga  Ga2       1.0  0.94186  0.94186  0.60547  1.0000
  Ga  Ga3       1.0  0.67181  0.67181  0.66155  1.0000
  P   P1        1.0  0.62402  0.62402  0.26571  1.0000
  P   P2        1.0  0.32242  0.32242  0.32458  1.0000
  P   P3        1.0  0.27325  0.27325  0.97005  1.0000
