data_image0
_chemical_formula_structural       Ga4P4
_chemical_formula_sum              "Ga4 P4"
_cell_length_a       4.12323
_cell_length_b       5.35329
_cell_length_c       7.00176
_cell_angle_alpha    90
_cell_angle_beta     90
_cell_angle_gamma    90

_space_group_name_H-M_alt    "P 1"
_space_group_IT_number       1

loop_
  _space_group_symop_operation_xyz
  'x, y, z'

loop_
  _atom_site_type_symbol
  _atom_site_label
  _atom_site_symmetry_multiplicity
  _atom_site_fract_x
  _atom_site_fract_y
  _atom_site_fract_z
  _atom_site_occupancy
  Ga  Ga1       1.0  0.25000  0.87653  0.53559  1.0000
  Ga  Ga2       1.0  0.75000  0.12347  0.46441  1.0000
  Ga  Ga3       1.0  0.75000  0.37653  0.96441  1.0000
  Ga  Ga4       1.0  0.25000  0.62347  0.03559  1.0000
  P   P1        1.0  0.25000  0.36716  0.68060  1.0000
  P   P2        1.0  0.75000  0.63284  0.31940  1.0000
  P   P3        1.0  0.75000  0.86716  0.81940  1.0000
  P   P4        1.0  0.25000  0.13284  0.18060  1.0000
