data_image0
_chemical_formula_structural       Ga4P4
_chemical_formula_sum              "Ga4 P4"
_cell_length_a       4.21412
_cell_length_b       4.50177
_cell_length_c       5.21253
_cell_angle_alpha    64.3801
_cell_angle_beta     113.877
_cell_angle_gamma    90.0774

_space_group_name_H-M_alt    "P 1"
_space_group_IT_number       1

loop_
  _space_group_symop_operation_xyz
  'x, y, z'

loop_
  _atom_site_type_symbol
  _atom_site_label
  _atom_site_symmetry_multiplicity
  _atom_site_fract_x
  _atom_site_fract_y
  _atom_site_fract_z
  _atom_site_occupancy
  Ga  Ga1       1.0  0.74969  0.25028  0.49938  1.0000
  Ga  Ga2       1.0  0.24969  0.75032  0.49939  1.0000
  Ga  Ga3       1.0  0.50031  0.99967  0.00062  1.0000
  Ga  Ga4       1.0  0.00030  0.49972  0.00061  1.0000
  P   P1        1.0  0.25098  0.24901  0.50198  1.0000
  P   P2        1.0  0.49901  0.50100  0.99800  1.0000
  P   P3        1.0  0.75095  0.74905  0.50190  1.0000
  P   P4        1.0  0.99906  0.00094  0.99811  1.0000
