data_image0
_chemical_formula_structural       Ga6P6
_chemical_formula_sum              "Ga6 P6"
_cell_length_a       4.38521
_cell_length_b       6.3122
_cell_length_c       8.95701
_cell_angle_alpha    104.029
_cell_angle_beta     88.2834
_cell_angle_gamma    108.395

_space_group_name_H-M_alt    "P 1"
_space_group_IT_number       1

loop_
  _space_group_symop_operation_xyz
  'x, y, z'

loop_
  _atom_site_type_symbol
  _atom_site_label
  _atom_site_symmetry_multiplicity
  _atom_site_fract_x
  _atom_site_fract_y
  _atom_site_fract_z
  _atom_site_occupancy
  Ga  Ga1       1.0  0.83021  0.71543  0.99288  1.0000
  Ga  Ga2       1.0  0.74631  0.51141  0.33232  1.0000
  Ga  Ga3       1.0  0.94984  0.92707  0.66883  1.0000
  Ga  Ga4       1.0  0.25369  0.48858  0.66768  1.0000
  Ga  Ga5       1.0  0.05016  0.07293  0.33117  1.0000
  Ga  Ga6       1.0  0.16979  0.28457  0.00712  1.0000
  P   P1        1.0  0.42573  0.92027  0.86691  1.0000
  P   P2        1.0  0.38904  0.79031  0.47243  1.0000
  P   P3        1.0  0.57427  0.07973  0.13309  1.0000
  P   P4        1.0  0.31789  0.71512  0.19780  1.0000
  P   P5        1.0  0.68211  0.28488  0.80220  1.0000
  P   P6        1.0  0.61097  0.20969  0.52757  1.0000
