data_image0
_chemical_formula_structural       Ga2P2
_chemical_formula_sum              "Ga2 P2"
_cell_length_a       3.85904
_cell_length_b       3.95665
_cell_length_c       6.16286
_cell_angle_alpha    90
_cell_angle_beta     108.245
_cell_angle_gamma    90

_space_group_name_H-M_alt    "P 1"
_space_group_IT_number       1

loop_
  _space_group_symop_operation_xyz
  'x, y, z'

loop_
  _atom_site_type_symbol
  _atom_site_label
  _atom_site_symmetry_multiplicity
  _atom_site_fract_x
  _atom_site_fract_y
  _atom_site_fract_z
  _atom_site_occupancy
  Ga  Ga1       1.0  0.13619  0.75000  0.27237  1.0000
  Ga  Ga2       1.0  0.86381  0.25000  0.72763  1.0000
  P   P1        1.0  0.40722  0.75000  0.81443  1.0000
  P   P2        1.0  0.59278  0.25000  0.18557  1.0000
