data_image0
_chemical_formula_structural       Ga3P3
_chemical_formula_sum              "Ga3 P3"
_cell_length_a       5.5285
_cell_length_b       5.5285
_cell_length_c       5.72345
_cell_angle_alpha    90
_cell_angle_beta     90
_cell_angle_gamma    117.47

_space_group_name_H-M_alt    "P 1"
_space_group_IT_number       1

loop_
  _space_group_symop_operation_xyz
  'x, y, z'

loop_
  _atom_site_type_symbol
  _atom_site_label
  _atom_site_symmetry_multiplicity
  _atom_site_fract_x
  _atom_site_fract_y
  _atom_site_fract_z
  _atom_site_occupancy
  Ga  Ga1       1.0  0.34096  0.34096  0.00000  1.0000
  Ga  Ga2       1.0  0.18317  0.82829  0.50000  1.0000
  Ga  Ga3       1.0  0.82829  0.18317  0.50000  1.0000
  P   P1        1.0  0.69723  0.01536  0.00000  1.0000
  P   P2        1.0  0.01536  0.69723  0.00000  1.0000
  P   P3        1.0  0.43505  0.43505  0.50000  1.0000
