data_image0
_chemical_formula_structural       Ga4P4
_chemical_formula_sum              "Ga4 P4"
_cell_length_a       3.86175
_cell_length_b       7.73648
_cell_length_c       5.85753
_cell_angle_alpha    109.281
_cell_angle_beta     90
_cell_angle_gamma    90

_space_group_name_H-M_alt    "P 1"
_space_group_IT_number       1

loop_
  _space_group_symop_operation_xyz
  'x, y, z'

loop_
  _atom_site_type_symbol
  _atom_site_label
  _atom_site_symmetry_multiplicity
  _atom_site_fract_x
  _atom_site_fract_y
  _atom_site_fract_z
  _atom_site_occupancy
  Ga  Ga1       1.0  0.25000  0.06915  0.27660  1.0000
  Ga  Ga2       1.0  0.75000  0.43085  0.72340  1.0000
  Ga  Ga3       1.0  0.25000  0.56915  0.27660  1.0000
  Ga  Ga4       1.0  0.75000  0.93085  0.72340  1.0000
  P   P1        1.0  0.25000  0.17545  0.70181  1.0000
  P   P2        1.0  0.75000  0.32455  0.29819  1.0000
  P   P3        1.0  0.25000  0.67545  0.70181  1.0000
  P   P4        1.0  0.75000  0.82455  0.29819  1.0000
