data_image0
_chemical_formula_structural       Ga2P2
_chemical_formula_sum              "Ga2 P2"
_cell_length_a       4.59098
_cell_length_b       4.59078
_cell_length_c       3.35126
_cell_angle_alpha    90
_cell_angle_beta     90.006
_cell_angle_gamma    90

_space_group_name_H-M_alt    "P 1"
_space_group_IT_number       1

loop_
  _space_group_symop_operation_xyz
  'x, y, z'

loop_
  _atom_site_type_symbol
  _atom_site_label
  _atom_site_symmetry_multiplicity
  _atom_site_fract_x
  _atom_site_fract_y
  _atom_site_fract_z
  _atom_site_occupancy
  Ga  Ga1       1.0  0.24987  0.25000  0.50007  1.0000
  Ga  Ga2       1.0  0.75013  0.75000  0.49993  1.0000
  P   P1        1.0  0.25040  0.75000  0.00023  1.0000
  P   P2        1.0  0.74960  0.25000  0.99977  1.0000
