data_image0
_chemical_formula_structural       Ga3P3
_chemical_formula_sum              "Ga3 P3"
_cell_length_a       8.57144
_cell_length_b       8.57144
_cell_length_c       5.27567
_cell_angle_alpha    90
_cell_angle_beta     90
_cell_angle_gamma    157.624

_space_group_name_H-M_alt    "P 1"
_space_group_IT_number       1

loop_
  _space_group_symop_operation_xyz
  'x, y, z'

loop_
  _atom_site_type_symbol
  _atom_site_label
  _atom_site_symmetry_multiplicity
  _atom_site_fract_x
  _atom_site_fract_y
  _atom_site_fract_z
  _atom_site_occupancy
  Ga  Ga1       1.0  0.99386  0.00614  0.00000  1.0000
  Ga  Ga2       1.0  0.66783  0.33217  0.00000  1.0000
  Ga  Ga3       1.0  0.78221  0.21779  0.50000  1.0000
  P   P1        1.0  0.33257  0.66743  0.00000  1.0000
  P   P2        1.0  0.11132  0.88868  0.50000  1.0000
  P   P3        1.0  0.44554  0.55446  0.50000  1.0000
