data_image0
_chemical_formula_structural       Ga4P4
_chemical_formula_sum              "Ga4 P4"
_cell_length_a       3.44368
_cell_length_b       6.88716
_cell_length_c       6.35259
_cell_angle_alpha    105.717
_cell_angle_beta     105.717
_cell_angle_gamma    90.0042

_space_group_name_H-M_alt    "P 1"
_space_group_IT_number       1

loop_
  _space_group_symop_operation_xyz
  'x, y, z'

loop_
  _atom_site_type_symbol
  _atom_site_label
  _atom_site_symmetry_multiplicity
  _atom_site_fract_x
  _atom_site_fract_y
  _atom_site_fract_z
  _atom_site_occupancy
  Ga  Ga1       1.0  0.00003  0.00013  0.00035  1.0000
  Ga  Ga2       1.0  0.75022  0.12501  0.50037  1.0000
  Ga  Ga3       1.0  0.00003  0.50013  0.00035  1.0000
  Ga  Ga4       1.0  0.75022  0.62501  0.50037  1.0000
  P   P1        1.0  0.41755  0.20880  0.83502  1.0000
  P   P2        1.0  0.16759  0.33377  0.33506  1.0000
  P   P3        1.0  0.41755  0.70879  0.83502  1.0000
  P   P4        1.0  0.16759  0.83378  0.33506  1.0000
