data_image0
_chemical_formula_structural       Ga3P3
_chemical_formula_sum              "Ga3 P3"
_cell_length_a       6.13653
_cell_length_b       6.13653
_cell_length_c       6.60191
_cell_angle_alpha    66.0076
_cell_angle_beta     66.0076
_cell_angle_gamma    60.2319

_space_group_name_H-M_alt    "P 1"
_space_group_IT_number       1

loop_
  _space_group_symop_operation_xyz
  'x, y, z'

loop_
  _atom_site_type_symbol
  _atom_site_label
  _atom_site_symmetry_multiplicity
  _atom_site_fract_x
  _atom_site_fract_y
  _atom_site_fract_z
  _atom_site_occupancy
  Ga  Ga1       1.0  0.66019  0.00261  0.99673  1.0000
  Ga  Ga2       1.0  0.99739  0.33981  0.00327  1.0000
  Ga  Ga3       1.0  0.50183  0.49817  0.50000  1.0000
  P   P1        1.0  0.35367  0.64633  0.00000  1.0000
  P   P2        1.0  0.15513  0.16821  0.50930  1.0000
  P   P3        1.0  0.83179  0.84487  0.49070  1.0000
