data_image0
_chemical_formula_structural       Ga6P6
_chemical_formula_sum              "Ga6 P6"
_cell_length_a       4.70831
_cell_length_b       5.60168
_cell_length_c       8.73087
_cell_angle_alpha    80.3535
_cell_angle_beta     81.0821
_cell_angle_gamma    77.0478

_space_group_name_H-M_alt    "P 1"
_space_group_IT_number       1

loop_
  _space_group_symop_operation_xyz
  'x, y, z'

loop_
  _atom_site_type_symbol
  _atom_site_label
  _atom_site_symmetry_multiplicity
  _atom_site_fract_x
  _atom_site_fract_y
  _atom_site_fract_z
  _atom_site_occupancy
  Ga  Ga1       1.0  0.59500  0.10505  0.93882  1.0000
  Ga  Ga2       1.0  0.62026  0.76731  0.25074  1.0000
  Ga  Ga3       1.0  0.05446  0.02690  0.42410  1.0000
  Ga  Ga4       1.0  0.58585  0.45841  0.56892  1.0000
  Ga  Ga5       1.0  0.05144  0.39722  0.08903  1.0000
  Ga  Ga6       1.0  0.09311  0.26732  0.74041  1.0000
  P   P1        1.0  0.06548  0.76179  0.76350  1.0000
  P   P2        1.0  0.13082  0.52507  0.40129  1.0000
  P   P3        1.0  0.56477  0.60903  0.89363  1.0000
  P   P4        1.0  0.12516  0.88945  0.02475  1.0000
  P   P5        1.0  0.57544  0.93115  0.64374  1.0000
  P   P6        1.0  0.53827  0.26137  0.26096  1.0000
