data_image0
_chemical_formula_structural       Ga8P8
_chemical_formula_sum              "Ga8 P8"
_cell_length_a       2.91755
_cell_length_b       5.83498
_cell_length_c       7.93961
_cell_angle_alpha    100.589
_cell_angle_beta     100.59
_cell_angle_gamma    90.0036

_space_group_name_H-M_alt    "P 1"
_space_group_IT_number       1

loop_
  _space_group_symop_operation_xyz
  'x, y, z'

loop_
  _atom_site_type_symbol
  _atom_site_label
  _atom_site_symmetry_multiplicity
  _atom_site_fract_x
  _atom_site_fract_y
  _atom_site_fract_z
  _atom_site_occupancy
  Ga  Ga1       1.0  0.67611  0.46293  0.35264  1.0000
  Ga  Ga2       1.0  0.92588  0.33807  0.85269  1.0000
  Ga  Ga3       1.0  0.32393  0.03709  0.64745  1.0000
  Ga  Ga4       1.0  0.07407  0.16191  0.14722  1.0000
  Ga  Ga5       1.0  0.67611  0.96293  0.35264  1.0000
  Ga  Ga6       1.0  0.92588  0.83807  0.85269  1.0000
  Ga  Ga7       1.0  0.32393  0.53709  0.64745  1.0000
  Ga  Ga8       1.0  0.07407  0.66191  0.14722  1.0000
  P   P1        1.0  0.21722  0.23362  0.43451  1.0000
  P   P2        1.0  0.46726  0.10862  0.93454  1.0000
  P   P3        1.0  0.78277  0.26637  0.56548  1.0000
  P   P4        1.0  0.53276  0.39139  0.06548  1.0000
  P   P5        1.0  0.21722  0.73362  0.43451  1.0000
  P   P6        1.0  0.46726  0.60862  0.93454  1.0000
  P   P7        1.0  0.78277  0.76638  0.56548  1.0000
  P   P8        1.0  0.53276  0.89139  0.06548  1.0000
