data_image0
_chemical_formula_structural       Ga4P4
_chemical_formula_sum              "Ga4 P4"
_cell_length_a       3.76823
_cell_length_b       5.22345
_cell_length_c       6.8624
_cell_angle_alpha    90
_cell_angle_beta     90
_cell_angle_gamma    90

_space_group_name_H-M_alt    "P 1"
_space_group_IT_number       1

loop_
  _space_group_symop_operation_xyz
  'x, y, z'

loop_
  _atom_site_type_symbol
  _atom_site_label
  _atom_site_symmetry_multiplicity
  _atom_site_fract_x
  _atom_site_fract_y
  _atom_site_fract_z
  _atom_site_occupancy
  Ga  Ga1       1.0  0.25000  0.37439  0.67514  1.0000
  Ga  Ga2       1.0  0.75000  0.62561  0.32486  1.0000
  Ga  Ga3       1.0  0.75000  0.87439  0.82486  1.0000
  Ga  Ga4       1.0  0.25000  0.12561  0.17514  1.0000
  P   P1        1.0  0.25000  0.86087  0.54312  1.0000
  P   P2        1.0  0.75000  0.13913  0.45687  1.0000
  P   P3        1.0  0.75000  0.36087  0.95688  1.0000
  P   P4        1.0  0.25000  0.63913  0.04312  1.0000
