data_image0
_chemical_formula_structural       Ga6P6
_chemical_formula_sum              "Ga6 P6"
_cell_length_a       4.41892
_cell_length_b       8.84502
_cell_length_c       9.9016
_cell_angle_alpha    89.9531
_cell_angle_beta     90.0254
_cell_angle_gamma    119.971

_space_group_name_H-M_alt    "P 1"
_space_group_IT_number       1

loop_
  _space_group_symop_operation_xyz
  'x, y, z'

loop_
  _atom_site_type_symbol
  _atom_site_label
  _atom_site_symmetry_multiplicity
  _atom_site_fract_x
  _atom_site_fract_y
  _atom_site_fract_z
  _atom_site_occupancy
  Ga  Ga1       1.0  0.72135  0.36089  0.99992  1.0000
  Ga  Ga2       1.0  0.27838  0.49995  0.66659  1.0000
  Ga  Ga3       1.0  0.00000  0.13895  0.33326  1.0000
  Ga  Ga4       1.0  0.72135  0.86089  0.99992  1.0000
  Ga  Ga5       1.0  0.27838  0.99995  0.66659  1.0000
  Ga  Ga6       1.0  0.00000  0.63896  0.33326  1.0000
  P   P1        1.0  0.49376  0.24687  0.49993  1.0000
  P   P2        1.0  0.50595  0.00010  0.16657  1.0000
  P   P3        1.0  0.00057  0.25324  0.83353  1.0000
  P   P4        1.0  0.49376  0.74687  0.49993  1.0000
  P   P5        1.0  0.50595  0.50010  0.16657  1.0000
  P   P6        1.0  0.00057  0.75324  0.83353  1.0000
