data_image0
_chemical_formula_structural       Ga3P3
_chemical_formula_sum              "Ga3 P3"
_cell_length_a       6.08613
_cell_length_b       6.08613
_cell_length_c       7.3401
_cell_angle_alpha    73.9457
_cell_angle_beta     73.9457
_cell_angle_gamma    29.5426

_space_group_name_H-M_alt    "P 1"
_space_group_IT_number       1

loop_
  _space_group_symop_operation_xyz
  'x, y, z'

loop_
  _atom_site_type_symbol
  _atom_site_label
  _atom_site_symmetry_multiplicity
  _atom_site_fract_x
  _atom_site_fract_y
  _atom_site_fract_z
  _atom_site_occupancy
  Ga  Ga1       1.0  0.60978  0.60978  0.27352  1.0000
  Ga  Ga2       1.0  0.33536  0.33536  0.33199  1.0000
  Ga  Ga3       1.0  0.94194  0.94194  0.62204  1.0000
  P   P1        1.0  0.00287  0.00287  0.99922  1.0000
  P   P2        1.0  0.66784  0.66784  0.65482  1.0000
  P   P3        1.0  0.27554  0.27554  0.95176  1.0000
