data_image0
_chemical_formula_structural       Ga4P4
_chemical_formula_sum              "Ga4 P4"
_cell_length_a       4.7086
_cell_length_b       4.7086
_cell_length_c       4.7086
_cell_angle_alpha    90
_cell_angle_beta     90
_cell_angle_gamma    90

_space_group_name_H-M_alt    "P 1"
_space_group_IT_number       1

loop_
  _space_group_symop_operation_xyz
  'x, y, z'

loop_
  _atom_site_type_symbol
  _atom_site_label
  _atom_site_symmetry_multiplicity
  _atom_site_fract_x
  _atom_site_fract_y
  _atom_site_fract_z
  _atom_site_occupancy
  Ga  Ga1       1.0  0.87059  0.62941  0.37059  1.0000
  Ga  Ga2       1.0  0.62941  0.37059  0.87059  1.0000
  Ga  Ga3       1.0  0.37059  0.87059  0.62941  1.0000
  Ga  Ga4       1.0  0.12941  0.12941  0.12941  1.0000
  P   P1        1.0  0.16242  0.33758  0.66242  1.0000
  P   P2        1.0  0.33758  0.66242  0.16242  1.0000
  P   P3        1.0  0.66242  0.16242  0.33758  1.0000
  P   P4        1.0  0.83758  0.83758  0.83758  1.0000
