data_image0
_chemical_formula_structural       Ga8P8
_chemical_formula_sum              "Ga8 P8"
_cell_length_a       8.09245
_cell_length_b       8.09245
_cell_length_c       8.09245
_cell_angle_alpha    150.25
_cell_angle_beta     135.494
_cell_angle_gamma    54.452

_space_group_name_H-M_alt    "P 1"
_space_group_IT_number       1

loop_
  _space_group_symop_operation_xyz
  'x, y, z'

loop_
  _atom_site_type_symbol
  _atom_site_label
  _atom_site_symmetry_multiplicity
  _atom_site_fract_x
  _atom_site_fract_y
  _atom_site_fract_z
  _atom_site_occupancy
  Ga  Ga1       1.0  0.02566  0.19016  0.83550  1.0000
  Ga  Ga2       1.0  0.97434  0.80984  0.16450  1.0000
  Ga  Ga3       1.0  0.64533  0.30984  0.33550  1.0000
  Ga  Ga4       1.0  0.35467  0.69016  0.66450  1.0000
  Ga  Ga5       1.0  0.74084  0.57077  0.17008  1.0000
  Ga  Ga6       1.0  0.25916  0.42923  0.82992  1.0000
  Ga  Ga7       1.0  0.59931  0.92923  0.67008  1.0000
  Ga  Ga8       1.0  0.40069  0.07077  0.32992  1.0000
  P   P1        1.0  0.73705  0.07078  0.66628  1.0000
  P   P2        1.0  0.26295  0.92922  0.33372  1.0000
  P   P3        1.0  0.59550  0.42922  0.16628  1.0000
  P   P4        1.0  0.40450  0.57078  0.83372  1.0000
  P   P5        1.0  0.02637  0.69008  0.33629  1.0000
  P   P6        1.0  0.97363  0.30992  0.66371  1.0000
  P   P7        1.0  0.64621  0.80992  0.83629  1.0000
  P   P8        1.0  0.35379  0.19008  0.16371  1.0000
