data_image0
_chemical_formula_structural       Ga4P4
_chemical_formula_sum              "Ga4 P4"
_cell_length_a       4.83495
_cell_length_b       7.48643
_cell_length_c       5.88355
_cell_angle_alpha    89.3364
_cell_angle_beta     90
_cell_angle_gamma    90

_space_group_name_H-M_alt    "P 1"
_space_group_IT_number       1

loop_
  _space_group_symop_operation_xyz
  'x, y, z'

loop_
  _atom_site_type_symbol
  _atom_site_label
  _atom_site_symmetry_multiplicity
  _atom_site_fract_x
  _atom_site_fract_y
  _atom_site_fract_z
  _atom_site_occupancy
  Ga  Ga1       1.0  0.75000  0.81227  0.35160  1.0000
  Ga  Ga2       1.0  0.25000  0.18773  0.64840  1.0000
  Ga  Ga3       1.0  0.25000  0.68710  0.84935  1.0000
  Ga  Ga4       1.0  0.75000  0.31290  0.15065  1.0000
  P   P1        1.0  0.75000  0.96226  0.84534  1.0000
  P   P2        1.0  0.25000  0.03774  0.15466  1.0000
  P   P3        1.0  0.25000  0.54214  0.34516  1.0000
  P   P4        1.0  0.75000  0.45786  0.65484  1.0000
