data_image0
_chemical_formula_structural       Ga4P4
_chemical_formula_sum              "Ga4 P4"
_cell_length_a       3.15461
_cell_length_b       4.39706
_cell_length_c       6.19319
_cell_angle_alpha    90
_cell_angle_beta     90.001
_cell_angle_gamma    89.9999

_space_group_name_H-M_alt    "P 1"
_space_group_IT_number       1

loop_
  _space_group_symop_operation_xyz
  'x, y, z'

loop_
  _atom_site_type_symbol
  _atom_site_label
  _atom_site_symmetry_multiplicity
  _atom_site_fract_x
  _atom_site_fract_y
  _atom_site_fract_z
  _atom_site_occupancy
  Ga  Ga1       1.0  0.00000  0.50000  0.49314  1.0000
  Ga  Ga2       1.0  0.50000  0.00000  0.75692  1.0000
  Ga  Ga3       1.0  0.00000  0.50000  0.99310  1.0000
  Ga  Ga4       1.0  0.50000  0.00000  0.25692  1.0000
  P   P1        1.0  0.50000  0.50000  0.73914  1.0000
  P   P2        1.0  0.00000  0.00000  0.01085  1.0000
  P   P3        1.0  0.49997  0.50000  0.23913  1.0000
  P   P4        1.0  0.00001  0.00000  0.51079  1.0000
