data_image0
_chemical_formula_structural       Ga4P4
_chemical_formula_sum              "Ga4 P4"
_cell_length_a       4.36624
_cell_length_b       8.73248
_cell_length_c       7.56544
_cell_angle_alpha    73.1808
_cell_angle_beta     73.1808
_cell_angle_gamma    59.9753

_space_group_name_H-M_alt    "P 1"
_space_group_IT_number       1

loop_
  _space_group_symop_operation_xyz
  'x, y, z'

loop_
  _atom_site_type_symbol
  _atom_site_label
  _atom_site_symmetry_multiplicity
  _atom_site_fract_x
  _atom_site_fract_y
  _atom_site_fract_z
  _atom_site_occupancy
  Ga  Ga1       1.0  0.00000  0.00000  0.00000  1.0000
  Ga  Ga2       1.0  0.50000  0.25000  0.50000  1.0000
  Ga  Ga3       1.0  0.00000  0.50000  0.00000  1.0000
  Ga  Ga4       1.0  0.50000  0.75000  0.50000  1.0000
  P   P1        1.0  0.75572  0.37786  0.75025  1.0000
  P   P2        1.0  0.24428  0.12214  0.24975  1.0000
  P   P3        1.0  0.75572  0.87786  0.75025  1.0000
  P   P4        1.0  0.24428  0.62214  0.24975  1.0000
