data_image0
_chemical_formula_structural       Ga4P4
_chemical_formula_sum              "Ga4 P4"
_cell_length_a       6.50145
_cell_length_b       6.50145
_cell_length_c       8.90098
_cell_angle_alpha    90
_cell_angle_beta     90
_cell_angle_gamma    141.287

_space_group_name_H-M_alt    "P 1"
_space_group_IT_number       1

loop_
  _space_group_symop_operation_xyz
  'x, y, z'

loop_
  _atom_site_type_symbol
  _atom_site_label
  _atom_site_symmetry_multiplicity
  _atom_site_fract_x
  _atom_site_fract_y
  _atom_site_fract_z
  _atom_site_occupancy
  Ga  Ga1       1.0  0.86129  0.13871  0.37500  1.0000
  Ga  Ga2       1.0  0.13871  0.86129  0.12500  1.0000
  Ga  Ga3       1.0  0.86129  0.13871  0.87500  1.0000
  Ga  Ga4       1.0  0.13871  0.86129  0.62500  1.0000
  P   P1        1.0  0.63176  0.36824  0.37500  1.0000
  P   P2        1.0  0.36824  0.63176  0.12500  1.0000
  P   P3        1.0  0.63176  0.36824  0.87500  1.0000
  P   P4        1.0  0.36824  0.63176  0.62500  1.0000
