data_image0
_chemical_formula_structural       Ga4P4
_chemical_formula_sum              "Ga4 P4"
_cell_length_a       5.83526
_cell_length_b       2.96569
_cell_length_c       3.93584
_cell_angle_alpha    90
_cell_angle_beta     111.756
_cell_angle_gamma    90

_space_group_name_H-M_alt    "P 1"
_space_group_IT_number       1

loop_
  _space_group_symop_operation_xyz
  'x, y, z'

loop_
  _atom_site_type_symbol
  _atom_site_label
  _atom_site_symmetry_multiplicity
  _atom_site_fract_x
  _atom_site_fract_y
  _atom_site_fract_z
  _atom_site_occupancy
  Ga  Ga1       1.0  0.07334  0.75000  0.29337  1.0000
  Ga  Ga2       1.0  0.42666  0.25000  0.70663  1.0000
  Ga  Ga3       1.0  0.57334  0.75000  0.29337  1.0000
  Ga  Ga4       1.0  0.92666  0.25000  0.70663  1.0000
  P   P1        1.0  0.21603  0.75000  0.86410  1.0000
  P   P2        1.0  0.28397  0.25000  0.13590  1.0000
  P   P3        1.0  0.71603  0.75000  0.86410  1.0000
  P   P4        1.0  0.78397  0.25000  0.13590  1.0000
