data_image0
_chemical_formula_structural       Ga8P8
_chemical_formula_sum              "Ga8 P8"
_cell_length_a       6.31442
_cell_length_b       5.35092
_cell_length_c       5.36008
_cell_angle_alpha    108.442
_cell_angle_beta     91.0867
_cell_angle_gamma    91.6599

_space_group_name_H-M_alt    "P 1"
_space_group_IT_number       1

loop_
  _space_group_symop_operation_xyz
  'x, y, z'

loop_
  _atom_site_type_symbol
  _atom_site_label
  _atom_site_symmetry_multiplicity
  _atom_site_fract_x
  _atom_site_fract_y
  _atom_site_fract_z
  _atom_site_occupancy
  Ga  Ga1       1.0  0.48969  0.25053  0.73045  1.0000
  Ga  Ga2       1.0  0.23972  0.25014  0.23045  1.0000
  Ga  Ga3       1.0  0.01031  0.74947  0.26955  1.0000
  Ga  Ga4       1.0  0.26028  0.74986  0.76955  1.0000
  Ga  Ga5       1.0  0.98969  0.25053  0.73045  1.0000
  Ga  Ga6       1.0  0.73972  0.25014  0.23045  1.0000
  Ga  Ga7       1.0  0.51031  0.74947  0.26955  1.0000
  Ga  Ga8       1.0  0.76028  0.74986  0.76955  1.0000
  P   P1        1.0  0.25000  0.00000  0.50000  1.0000
  P   P2        1.0  0.25000  0.50000  0.00000  1.0000
  P   P3        1.0  0.00000  0.00000  0.00000  1.0000
  P   P4        1.0  0.50000  0.50000  0.50000  1.0000
  P   P5        1.0  0.75000  0.00000  0.50000  1.0000
  P   P6        1.0  0.75000  0.50000  0.00000  1.0000
  P   P7        1.0  0.50000  0.00000  0.00000  1.0000
  P   P8        1.0  0.00000  0.50000  0.50000  1.0000
