data_image0
_chemical_formula_structural       Ga4P4
_chemical_formula_sum              "Ga4 P4"
_cell_length_a       6.63159
_cell_length_b       6.78576
_cell_length_c       7.06633
_cell_angle_alpha    106.767
_cell_angle_beta     101.804
_cell_angle_gamma    92.001

_space_group_name_H-M_alt    "P 1"
_space_group_IT_number       1

loop_
  _space_group_symop_operation_xyz
  'x, y, z'

loop_
  _atom_site_type_symbol
  _atom_site_label
  _atom_site_symmetry_multiplicity
  _atom_site_fract_x
  _atom_site_fract_y
  _atom_site_fract_z
  _atom_site_occupancy
  Ga  Ga1       1.0  0.33088  0.20062  0.85323  1.0000
  Ga  Ga2       1.0  0.66912  0.79938  0.14677  1.0000
  Ga  Ga3       1.0  0.75720  0.34061  0.53403  1.0000
  Ga  Ga4       1.0  0.24280  0.65939  0.46597  1.0000
  P   P1        1.0  0.11706  0.70057  0.95154  1.0000
  P   P2        1.0  0.88294  0.29943  0.04846  1.0000
  P   P3        1.0  0.80003  0.89816  0.70816  1.0000
  P   P4        1.0  0.19997  0.10184  0.29184  1.0000
