data_image0
_chemical_formula_structural       Ga4P4
_chemical_formula_sum              "Ga4 P4"
_cell_length_a       4.50369
_cell_length_b       4.50369
_cell_length_c       4.50369
_cell_angle_alpha    90
_cell_angle_beta     90
_cell_angle_gamma    90

_space_group_name_H-M_alt    "P 1"
_space_group_IT_number       1

loop_
  _space_group_symop_operation_xyz
  'x, y, z'

loop_
  _atom_site_type_symbol
  _atom_site_label
  _atom_site_symmetry_multiplicity
  _atom_site_fract_x
  _atom_site_fract_y
  _atom_site_fract_z
  _atom_site_occupancy
  Ga  Ga1       1.0  0.35050  0.85050  0.64950  1.0000
  Ga  Ga2       1.0  0.85050  0.64950  0.35050  1.0000
  Ga  Ga3       1.0  0.64950  0.35050  0.85050  1.0000
  Ga  Ga4       1.0  0.14950  0.14950  0.14950  1.0000
  P   P1        1.0  0.65317  0.15317  0.34683  1.0000
  P   P2        1.0  0.15317  0.34683  0.65317  1.0000
  P   P3        1.0  0.34683  0.65317  0.15317  1.0000
  P   P4        1.0  0.84683  0.84683  0.84683  1.0000
