data_image0
_chemical_formula_structural       Ga4P4
_chemical_formula_sum              "Ga4 P4"
_cell_length_a       6.75392
_cell_length_b       4.3325
_cell_length_c       5.47545
_cell_angle_alpha    90
_cell_angle_beta     107.961
_cell_angle_gamma    90

_space_group_name_H-M_alt    "P 1"
_space_group_IT_number       1

loop_
  _space_group_symop_operation_xyz
  'x, y, z'

loop_
  _atom_site_type_symbol
  _atom_site_label
  _atom_site_symmetry_multiplicity
  _atom_site_fract_x
  _atom_site_fract_y
  _atom_site_fract_z
  _atom_site_occupancy
  Ga  Ga1       1.0  0.29462  0.25000  0.17849  1.0000
  Ga  Ga2       1.0  0.20538  0.75000  0.82151  1.0000
  Ga  Ga3       1.0  0.79462  0.25000  0.17849  1.0000
  Ga  Ga4       1.0  0.70538  0.75000  0.82151  1.0000
  P   P1        1.0  0.42959  0.25000  0.71836  1.0000
  P   P2        1.0  0.07041  0.75000  0.28164  1.0000
  P   P3        1.0  0.92959  0.25000  0.71836  1.0000
  P   P4        1.0  0.57041  0.75000  0.28164  1.0000
