data_image0
_chemical_formula_structural       Ga4P4
_chemical_formula_sum              "Ga4 P4"
_cell_length_a       6.56186
_cell_length_b       4.3485
_cell_length_c       5.40404
_cell_angle_alpha    90
_cell_angle_beta     72.3283
_cell_angle_gamma    90

_space_group_name_H-M_alt    "P 1"
_space_group_IT_number       1

loop_
  _space_group_symop_operation_xyz
  'x, y, z'

loop_
  _atom_site_type_symbol
  _atom_site_label
  _atom_site_symmetry_multiplicity
  _atom_site_fract_x
  _atom_site_fract_y
  _atom_site_fract_z
  _atom_site_occupancy
  Ga  Ga1       1.0  0.20542  0.75000  0.17831  1.0000
  Ga  Ga2       1.0  0.29457  0.25000  0.82169  1.0000
  Ga  Ga3       1.0  0.70542  0.75000  0.17831  1.0000
  Ga  Ga4       1.0  0.79457  0.25000  0.82169  1.0000
  P   P1        1.0  0.07125  0.75000  0.71497  1.0000
  P   P2        1.0  0.42874  0.25000  0.28503  1.0000
  P   P3        1.0  0.57126  0.75000  0.71497  1.0000
  P   P4        1.0  0.92875  0.25000  0.28503  1.0000
