data_image0
_chemical_formula_structural       Ga4P4
_chemical_formula_sum              "Ga4 P4"
_cell_length_a       4.44011
_cell_length_b       5.86518
_cell_length_c       7.12935
_cell_angle_alpha    90
_cell_angle_beta     90
_cell_angle_gamma    90

_space_group_name_H-M_alt    "P 1"
_space_group_IT_number       1

loop_
  _space_group_symop_operation_xyz
  'x, y, z'

loop_
  _atom_site_type_symbol
  _atom_site_label
  _atom_site_symmetry_multiplicity
  _atom_site_fract_x
  _atom_site_fract_y
  _atom_site_fract_z
  _atom_site_occupancy
  Ga  Ga1       1.0  0.25000  0.85417  0.54592  1.0000
  Ga  Ga2       1.0  0.25000  0.64583  0.04592  1.0000
  Ga  Ga3       1.0  0.75000  0.14583  0.45408  1.0000
  Ga  Ga4       1.0  0.75000  0.35417  0.95408  1.0000
  P   P1        1.0  0.25000  0.36056  0.67573  1.0000
  P   P2        1.0  0.25000  0.13944  0.17573  1.0000
  P   P3        1.0  0.75000  0.63944  0.32427  1.0000
  P   P4        1.0  0.75000  0.86056  0.82427  1.0000
