data_image0
_chemical_formula_structural       Ga4P4
_chemical_formula_sum              "Ga4 P4"
_cell_length_a       2.98368
_cell_length_b       5.96736
_cell_length_c       6.10654
_cell_angle_alpha    77.918
_cell_angle_beta     77.918
_cell_angle_gamma    56.6562

_space_group_name_H-M_alt    "P 1"
_space_group_IT_number       1

loop_
  _space_group_symop_operation_xyz
  'x, y, z'

loop_
  _atom_site_type_symbol
  _atom_site_label
  _atom_site_symmetry_multiplicity
  _atom_site_fract_x
  _atom_site_fract_y
  _atom_site_fract_z
  _atom_site_occupancy
  Ga  Ga1       1.0  0.38348  0.19174  0.33921  1.0000
  Ga  Ga2       1.0  0.61652  0.30826  0.66079  1.0000
  Ga  Ga3       1.0  0.38348  0.69174  0.33921  1.0000
  Ga  Ga4       1.0  0.61652  0.80826  0.66079  1.0000
  P   P1        1.0  0.97367  0.48684  0.09966  1.0000
  P   P2        1.0  0.02633  0.01317  0.90034  1.0000
  P   P3        1.0  0.97367  0.98684  0.09966  1.0000
  P   P4        1.0  0.02633  0.51316  0.90034  1.0000
