data_image0
_chemical_formula_structural       Ga4P4
_chemical_formula_sum              "Ga4 P4"
_cell_length_a       3.00316
_cell_length_b       4.10961
_cell_length_c       5.72923
_cell_angle_alpha    90.0001
_cell_angle_beta     90.0002
_cell_angle_gamma    89.9999

_space_group_name_H-M_alt    "P 1"
_space_group_IT_number       1

loop_
  _space_group_symop_operation_xyz
  'x, y, z'

loop_
  _atom_site_type_symbol
  _atom_site_label
  _atom_site_symmetry_multiplicity
  _atom_site_fract_x
  _atom_site_fract_y
  _atom_site_fract_z
  _atom_site_occupancy
  Ga  Ga1       1.0  0.00000  0.50000  0.48243  1.0000
  Ga  Ga2       1.0  0.50000  0.00000  0.76743  1.0000
  Ga  Ga3       1.0  0.00000  0.50000  0.98259  1.0000
  Ga  Ga4       1.0  0.50000  0.00000  0.26757  1.0000
  P   P1        1.0  0.50000  0.50000  0.22862  1.0000
  P   P2        1.0  0.00000  0.00000  0.52137  1.0000
  P   P3        1.0  0.50000  0.50000  0.72868  1.0000
  P   P4        1.0  0.00000  0.00000  0.02132  1.0000
