data_image0
_chemical_formula_structural       Ga3P3
_chemical_formula_sum              "Ga3 P3"
_cell_length_a       6.58156
_cell_length_b       6.58156
_cell_length_c       8.05357
_cell_angle_alpha    74.1793
_cell_angle_beta     74.1793
_cell_angle_gamma    30.4613

_space_group_name_H-M_alt    "P 1"
_space_group_IT_number       1

loop_
  _space_group_symop_operation_xyz
  'x, y, z'

loop_
  _atom_site_type_symbol
  _atom_site_label
  _atom_site_symmetry_multiplicity
  _atom_site_fract_x
  _atom_site_fract_y
  _atom_site_fract_z
  _atom_site_occupancy
  Ga  Ga1       1.0  0.00667  0.00667  0.03545  1.0000
  Ga  Ga2       1.0  0.66787  0.66787  0.60346  1.0000
  Ga  Ga3       1.0  0.27337  0.27337  0.97421  1.0000
  P   P1        1.0  0.61211  0.61211  0.27216  1.0000
  P   P2        1.0  0.33522  0.33522  0.32950  1.0000
  P   P3        1.0  0.93810  0.93810  0.61856  1.0000
