data_image0
_chemical_formula_structural       Ga4P4
_chemical_formula_sum              "Ga4 P4"
_cell_length_a       5.5663
_cell_length_b       5.58136
_cell_length_c       6.04507
_cell_angle_alpha    90
_cell_angle_beta     90
_cell_angle_gamma    90

_space_group_name_H-M_alt    "P 1"
_space_group_IT_number       1

loop_
  _space_group_symop_operation_xyz
  'x, y, z'

loop_
  _atom_site_type_symbol
  _atom_site_label
  _atom_site_symmetry_multiplicity
  _atom_site_fract_x
  _atom_site_fract_y
  _atom_site_fract_z
  _atom_site_occupancy
  Ga  Ga1       1.0  0.25000  0.00553  0.64254  1.0000
  Ga  Ga2       1.0  0.25000  0.50553  0.35746  1.0000
  Ga  Ga3       1.0  0.75000  0.49447  0.64254  1.0000
  Ga  Ga4       1.0  0.75000  0.99447  0.35746  1.0000
  P   P1        1.0  0.25000  0.50449  0.87165  1.0000
  P   P2        1.0  0.25000  0.00449  0.12835  1.0000
  P   P3        1.0  0.75000  0.99551  0.87165  1.0000
  P   P4        1.0  0.75000  0.49551  0.12835  1.0000
