data_image0
_chemical_formula_structural       Ga6P6
_chemical_formula_sum              "Ga6 P6"
_cell_length_a       5.45888
_cell_length_b       5.45888
_cell_length_c       9.76689
_cell_angle_alpha    83.5691
_cell_angle_beta     83.5691
_cell_angle_gamma    49.2059

_space_group_name_H-M_alt    "P 1"
_space_group_IT_number       1

loop_
  _space_group_symop_operation_xyz
  'x, y, z'

loop_
  _atom_site_type_symbol
  _atom_site_label
  _atom_site_symmetry_multiplicity
  _atom_site_fract_x
  _atom_site_fract_y
  _atom_site_fract_z
  _atom_site_occupancy
  Ga  Ga1       1.0  0.25860  0.25860  0.63450  1.0000
  Ga  Ga2       1.0  0.11763  0.11763  0.45003  1.0000
  Ga  Ga3       1.0  0.41432  0.41432  0.91532  1.0000
  Ga  Ga4       1.0  0.58568  0.58568  0.08468  1.0000
  Ga  Ga5       1.0  0.74140  0.74140  0.36550  1.0000
  Ga  Ga6       1.0  0.88237  0.88237  0.54997  1.0000
  P   P1        1.0  0.09011  0.09011  0.87423  1.0000
  P   P2        1.0  0.90989  0.90989  0.12577  1.0000
  P   P3        1.0  0.44268  0.44268  0.35558  1.0000
  P   P4        1.0  0.55732  0.55732  0.64442  1.0000
  P   P5        1.0  0.20655  0.20655  0.16572  1.0000
  P   P6        1.0  0.79345  0.79345  0.83428  1.0000
