data_image0
_chemical_formula_structural       Ga4P4
_chemical_formula_sum              "Ga4 P4"
_cell_length_a       3.8952
_cell_length_b       8.13824
_cell_length_c       5.84552
_cell_angle_alpha    90
_cell_angle_beta     90
_cell_angle_gamma    90

_space_group_name_H-M_alt    "P 1"
_space_group_IT_number       1

loop_
  _space_group_symop_operation_xyz
  'x, y, z'

loop_
  _atom_site_type_symbol
  _atom_site_label
  _atom_site_symmetry_multiplicity
  _atom_site_fract_x
  _atom_site_fract_y
  _atom_site_fract_z
  _atom_site_occupancy
  Ga  Ga1       1.0  0.75000  0.96406  0.87652  1.0000
  Ga  Ga2       1.0  0.25000  0.03594  0.12348  1.0000
  Ga  Ga3       1.0  0.25000  0.53594  0.37652  1.0000
  Ga  Ga4       1.0  0.75000  0.46406  0.62348  1.0000
  P   P1        1.0  0.75000  0.82071  0.38574  1.0000
  P   P2        1.0  0.25000  0.17929  0.61426  1.0000
  P   P3        1.0  0.25000  0.67929  0.88574  1.0000
  P   P4        1.0  0.75000  0.32071  0.11426  1.0000
