data_image0
_chemical_formula_structural       Ga2P2
_chemical_formula_sum              "Ga2 P2"
_cell_length_a       4.45259
_cell_length_b       8.90518
_cell_length_c       4.73396
_cell_angle_alpha    90
_cell_angle_beta     118.053
_cell_angle_gamma    60

_space_group_name_H-M_alt    "P 1"
_space_group_IT_number       1

loop_
  _space_group_symop_operation_xyz
  'x, y, z'

loop_
  _atom_site_type_symbol
  _atom_site_label
  _atom_site_symmetry_multiplicity
  _atom_site_fract_x
  _atom_site_fract_y
  _atom_site_fract_z
  _atom_site_occupancy
  Ga  Ga1       1.0  0.46394  0.38401  0.69590  1.0000
  Ga  Ga2       1.0  0.46394  0.88401  0.69590  1.0000
  P   P1        1.0  0.53606  0.11599  0.30410  1.0000
  P   P2        1.0  0.53606  0.61599  0.30410  1.0000
