data_image0
_chemical_formula_structural       Ga3P3
_chemical_formula_sum              "Ga3 P3"
_cell_length_a       6.46039
_cell_length_b       6.46039
_cell_length_c       7.99956
_cell_angle_alpha    77.3498
_cell_angle_beta     77.3498
_cell_angle_gamma    28.1503

_space_group_name_H-M_alt    "P 1"
_space_group_IT_number       1

loop_
  _space_group_symop_operation_xyz
  'x, y, z'

loop_
  _atom_site_type_symbol
  _atom_site_label
  _atom_site_symmetry_multiplicity
  _atom_site_fract_x
  _atom_site_fract_y
  _atom_site_fract_z
  _atom_site_occupancy
  Ga  Ga1       1.0  0.61909  0.61909  0.29938  1.0000
  Ga  Ga2       1.0  0.32253  0.32253  0.34398  1.0000
  Ga  Ga3       1.0  0.94818  0.94818  0.57210  1.0000
  P   P1        1.0  0.00021  0.00021  0.98666  1.0000
  P   P2        1.0  0.66517  0.66517  0.68966  1.0000
  P   P3        1.0  0.27814  0.27814  0.94156  1.0000
