data_image0
_chemical_formula_structural       Ga4P4
_chemical_formula_sum              "Ga4 P4"
_cell_length_a       4.76754
_cell_length_b       4.76754
_cell_length_c       4.76754
_cell_angle_alpha    90
_cell_angle_beta     90
_cell_angle_gamma    90

_space_group_name_H-M_alt    "P 1"
_space_group_IT_number       1

loop_
  _space_group_symop_operation_xyz
  'x, y, z'

loop_
  _atom_site_type_symbol
  _atom_site_label
  _atom_site_symmetry_multiplicity
  _atom_site_fract_x
  _atom_site_fract_y
  _atom_site_fract_z
  _atom_site_occupancy
  Ga  Ga1       1.0  0.13713  0.13713  0.13713  1.0000
  Ga  Ga2       1.0  0.36287  0.86287  0.63713  1.0000
  Ga  Ga3       1.0  0.63713  0.36287  0.86287  1.0000
  Ga  Ga4       1.0  0.86287  0.63713  0.36287  1.0000
  P   P1        1.0  0.84488  0.84488  0.84488  1.0000
  P   P2        1.0  0.65512  0.15513  0.34487  1.0000
  P   P3        1.0  0.34487  0.65512  0.15513  1.0000
  P   P4        1.0  0.15513  0.34487  0.65512  1.0000
