data_image0
_chemical_formula_structural       Ga4P4
_chemical_formula_sum              "Ga4 P4"
_cell_length_a       3.04722
_cell_length_b       3.88778
_cell_length_c       5.10885
_cell_angle_alpha    90
_cell_angle_beta     90
_cell_angle_gamma    90

_space_group_name_H-M_alt    "P 1"
_space_group_IT_number       1

loop_
  _space_group_symop_operation_xyz
  'x, y, z'

loop_
  _atom_site_type_symbol
  _atom_site_label
  _atom_site_symmetry_multiplicity
  _atom_site_fract_x
  _atom_site_fract_y
  _atom_site_fract_z
  _atom_site_occupancy
  Ga  Ga1       1.0  0.25000  0.37191  0.67683  1.0000
  Ga  Ga2       1.0  0.75000  0.62809  0.32317  1.0000
  Ga  Ga3       1.0  0.75000  0.87191  0.82317  1.0000
  Ga  Ga4       1.0  0.25000  0.12809  0.17683  1.0000
  P   P1        1.0  0.25000  0.87455  0.53207  1.0000
  P   P2        1.0  0.75000  0.12545  0.46793  1.0000
  P   P3        1.0  0.75000  0.37455  0.96793  1.0000
  P   P4        1.0  0.25000  0.62545  0.03207  1.0000
