data_image0
_chemical_formula_structural       Ga4P4
_chemical_formula_sum              "Ga4 P4"
_cell_length_a       5.38486
_cell_length_b       6.02968
_cell_length_c       6.02989
_cell_angle_alpha    102.627
_cell_angle_beta     90
_cell_angle_gamma    90

_space_group_name_H-M_alt    "P 1"
_space_group_IT_number       1

loop_
  _space_group_symop_operation_xyz
  'x, y, z'

loop_
  _atom_site_type_symbol
  _atom_site_label
  _atom_site_symmetry_multiplicity
  _atom_site_fract_x
  _atom_site_fract_y
  _atom_site_fract_z
  _atom_site_occupancy
  Ga  Ga1       1.0  0.25000  0.82287  0.82295  1.0000
  Ga  Ga2       1.0  0.75000  0.17713  0.17705  1.0000
  Ga  Ga3       1.0  0.00000  0.50000  0.50000  1.0000
  Ga  Ga4       1.0  0.50000  0.50000  0.50000  1.0000
  P   P1        1.0  0.25000  0.36981  0.98867  1.0000
  P   P2        1.0  0.75000  0.63019  0.01133  1.0000
  P   P3        1.0  0.25000  0.98863  0.36978  1.0000
  P   P4        1.0  0.75000  0.01137  0.63022  1.0000
