data_image0
_chemical_formula_structural       Ga2P2
_chemical_formula_sum              "Ga2 P2"
_cell_length_a       3.46654
_cell_length_b       3.46655
_cell_length_c       6.39358
_cell_angle_alpha    105.729
_cell_angle_beta     105.729
_cell_angle_gamma    90

_space_group_name_H-M_alt    "P 1"
_space_group_IT_number       1

loop_
  _space_group_symop_operation_xyz
  'x, y, z'

loop_
  _atom_site_type_symbol
  _atom_site_label
  _atom_site_symmetry_multiplicity
  _atom_site_fract_x
  _atom_site_fract_y
  _atom_site_fract_z
  _atom_site_occupancy
  Ga  Ga1       1.0  0.16728  0.66728  0.33455  1.0000
  Ga  Ga2       1.0  0.41728  0.41728  0.83455  1.0000
  P   P1        1.0  0.74972  0.24972  0.49945  1.0000
  P   P2        1.0  0.99972  0.99972  0.99945  1.0000
