data_image0
_chemical_formula_structural       Ga4P4
_chemical_formula_sum              "Ga4 P4"
_cell_length_a       3.88337
_cell_length_b       6.00436
_cell_length_c       6.398
_cell_angle_alpha    90
_cell_angle_beta     90
_cell_angle_gamma    90

_space_group_name_H-M_alt    "P 1"
_space_group_IT_number       1

loop_
  _space_group_symop_operation_xyz
  'x, y, z'

loop_
  _atom_site_type_symbol
  _atom_site_label
  _atom_site_symmetry_multiplicity
  _atom_site_fract_x
  _atom_site_fract_y
  _atom_site_fract_z
  _atom_site_occupancy
  Ga  Ga1       1.0  0.75000  0.80214  0.40940  1.0000
  Ga  Ga2       1.0  0.25000  0.19786  0.59060  1.0000
  Ga  Ga3       1.0  0.75000  0.30214  0.09060  1.0000
  Ga  Ga4       1.0  0.25000  0.69786  0.90940  1.0000
  P   P1        1.0  0.75000  0.99539  0.80412  1.0000
  P   P2        1.0  0.25000  0.00461  0.19588  1.0000
  P   P3        1.0  0.75000  0.49539  0.69588  1.0000
  P   P4        1.0  0.25000  0.50461  0.30412  1.0000
