data_image0
_chemical_formula_structural       Ga4P4
_chemical_formula_sum              "Ga4 P4"
_cell_length_a       4.90839
_cell_length_b       4.90839
_cell_length_c       4.90839
_cell_angle_alpha    90
_cell_angle_beta     90
_cell_angle_gamma    90

_space_group_name_H-M_alt    "P 1"
_space_group_IT_number       1

loop_
  _space_group_symop_operation_xyz
  'x, y, z'

loop_
  _atom_site_type_symbol
  _atom_site_label
  _atom_site_symmetry_multiplicity
  _atom_site_fract_x
  _atom_site_fract_y
  _atom_site_fract_z
  _atom_site_occupancy
  Ga  Ga1       1.0  0.16628  0.33372  0.66628  1.0000
  Ga  Ga2       1.0  0.33372  0.66628  0.16628  1.0000
  Ga  Ga3       1.0  0.66628  0.16628  0.33372  1.0000
  Ga  Ga4       1.0  0.83372  0.83372  0.83372  1.0000
  P   P1        1.0  0.88221  0.61779  0.38221  1.0000
  P   P2        1.0  0.61779  0.38221  0.88221  1.0000
  P   P3        1.0  0.38221  0.88221  0.61779  1.0000
  P   P4        1.0  0.11779  0.11779  0.11779  1.0000
