data_image0
_chemical_formula_structural       Ga2P2
_chemical_formula_sum              "Ga2 P2"
_cell_length_a       4.06519
_cell_length_b       4.64539
_cell_length_c       6.05605
_cell_angle_alpha    112.552
_cell_angle_beta     90
_cell_angle_gamma    89.9999

_space_group_name_H-M_alt    "P 1"
_space_group_IT_number       1

loop_
  _space_group_symop_operation_xyz
  'x, y, z'

loop_
  _atom_site_type_symbol
  _atom_site_label
  _atom_site_symmetry_multiplicity
  _atom_site_fract_x
  _atom_site_fract_y
  _atom_site_fract_z
  _atom_site_occupancy
  Ga  Ga1       1.0  0.25000  0.57205  0.14408  1.0000
  Ga  Ga2       1.0  0.75000  0.42797  0.85596  1.0000
  P   P1        1.0  0.25000  0.86041  0.72085  1.0000
  P   P2        1.0  0.75000  0.13957  0.27911  1.0000
