data_image0
_chemical_formula_structural       Ga4P4
_chemical_formula_sum              "Ga4 P4"
_cell_length_a       2.57273
_cell_length_b       5.47006
_cell_length_c       9.53907
_cell_angle_alpha    90
_cell_angle_beta     90
_cell_angle_gamma    90

_space_group_name_H-M_alt    "P 1"
_space_group_IT_number       1

loop_
  _space_group_symop_operation_xyz
  'x, y, z'

loop_
  _atom_site_type_symbol
  _atom_site_label
  _atom_site_symmetry_multiplicity
  _atom_site_fract_x
  _atom_site_fract_y
  _atom_site_fract_z
  _atom_site_occupancy
  Ga  Ga1       1.0  0.25000  0.80423  0.50936  1.0000
  Ga  Ga2       1.0  0.75000  0.19577  0.49063  1.0000
  Ga  Ga3       1.0  0.75000  0.30423  0.99064  1.0000
  Ga  Ga4       1.0  0.25000  0.69577  0.00937  1.0000
  P   P1        1.0  0.25000  0.43300  0.72934  1.0000
  P   P2        1.0  0.75000  0.56700  0.27066  1.0000
  P   P3        1.0  0.75000  0.93300  0.77066  1.0000
  P   P4        1.0  0.25000  0.06700  0.22934  1.0000
