data_image0
_chemical_formula_structural       Ga4P4
_chemical_formula_sum              "Ga4 P4"
_cell_length_a       2.90918
_cell_length_b       4.04919
_cell_length_c       5.46925
_cell_angle_alpha    90.0063
_cell_angle_beta     90
_cell_angle_gamma    90

_space_group_name_H-M_alt    "P 1"
_space_group_IT_number       1

loop_
  _space_group_symop_operation_xyz
  'x, y, z'

loop_
  _atom_site_type_symbol
  _atom_site_label
  _atom_site_symmetry_multiplicity
  _atom_site_fract_x
  _atom_site_fract_y
  _atom_site_fract_z
  _atom_site_occupancy
  Ga  Ga1       1.0  0.25000  0.38201  0.67920  1.0000
  Ga  Ga2       1.0  0.75000  0.61799  0.32080  1.0000
  Ga  Ga3       1.0  0.75000  0.88193  0.82064  1.0000
  Ga  Ga4       1.0  0.25000  0.11807  0.17936  1.0000
  P   P1        1.0  0.25000  0.88646  0.53512  1.0000
  P   P2        1.0  0.75000  0.11354  0.46488  1.0000
  P   P3        1.0  0.75000  0.38646  0.96488  1.0000
  P   P4        1.0  0.25000  0.61354  0.03512  1.0000
